1



                                 *********************************************

                                    NUMERICAL ELECTROMAGNETICS CODE (NEC-2D)

                                 *********************************************




                                     - - - - COMMENTS - - - -


                          Example 1 :	Dipole in free space 	                                         
                          See GetStarted.txt                                                         
                                                                                                     
                                                                                                     
                                                                                                     
                                                                                                     
                          forw: 90, 0 ; back:-90, 0                                                  
                                                                                                     




                                 - - - STRUCTURE SPECIFICATION - - -

                                     COORDINATES MUST BE INPUT IN
                                     METERS OR BE SCALED TO METERS
                                     BEFORE STRUCTURE INPUT IS ENDED


  WIRE                                                                               NO. OF    FIRST  LAST     TAG
  NO.        X1         Y1         Z1          X2         Y2         Z2      RADIUS   SEG.     SEG.   SEG.     NO.
     1    0.00000    0.00000   -0.08715     0.00000    0.00000    0.08715    0.00000     51        1    51       1

   TOTAL SEGMENTS USED=   51     NO. SEG. IN A SYMMETRIC CELL=   51     SYMMETRY FLAG=  0


         - MULTIPLE WIRE JUNCTIONS -
 JUNCTION    SEGMENTS  (- FOR END 1, + FOR END 2)
  NONE




                                 - - - - SEGMENTATION DATA - - - -

                                        COORDINATES IN METERS

                         I+ AND I- INDICATE THE SEGMENTS BEFORE AND AFTER I


  SEG.   COORDINATES OF SEG. CENTER     SEG.     ORIENTATION ANGLES    WIRE    CONNECTION DATA   TAG
  NO.       X         Y         Z       LENGTH     ALPHA     BETA      RADIUS    I-   I    I+    NO.
     1   0.00000   0.00000  -0.08544   0.00342   90.00000   0.00000   0.00000     0    1    2      1
     2   0.00000   0.00000  -0.08202   0.00342   90.00000   0.00000   0.00000     1    2    3      1
     3   0.00000   0.00000  -0.07860   0.00342   90.00000   0.00000   0.00000     2    3    4      1
     4   0.00000   0.00000  -0.07519   0.00342   90.00000   0.00000   0.00000     3    4    5      1
     5   0.00000   0.00000  -0.07177   0.00342   90.00000   0.00000   0.00000     4    5    6      1
     6   0.00000   0.00000  -0.06835   0.00342   90.00000   0.00000   0.00000     5    6    7      1
     7   0.00000   0.00000  -0.06493   0.00342   90.00000   0.00000   0.00000     6    7    8      1
     8   0.00000   0.00000  -0.06152   0.00342   90.00000   0.00000   0.00000     7    8    9      1
     9   0.00000   0.00000  -0.05810   0.00342   90.00000   0.00000   0.00000     8    9   10      1
    10   0.00000   0.00000  -0.05468   0.00342   90.00000   0.00000   0.00000     9   10   11      1
    11   0.00000   0.00000  -0.05126   0.00342   90.00000   0.00000   0.00000    10   11   12      1
    12   0.00000   0.00000  -0.04785   0.00342   90.00000   0.00000   0.00000    11   12   13      1
    13   0.00000   0.00000  -0.04443   0.00342   90.00000   0.00000   0.00000    12   13   14      1
    14   0.00000   0.00000  -0.04101   0.00342   90.00000   0.00000   0.00000    13   14   15      1
    15   0.00000   0.00000  -0.03759   0.00342   90.00000   0.00000   0.00000    14   15   16      1
    16   0.00000   0.00000  -0.03418   0.00342   90.00000   0.00000   0.00000    15   16   17      1
    17   0.00000   0.00000  -0.03076   0.00342   90.00000   0.00000   0.00000    16   17   18      1
    18   0.00000   0.00000  -0.02734   0.00342   90.00000   0.00000   0.00000    17   18   19      1
    19   0.00000   0.00000  -0.02392   0.00342   90.00000   0.00000   0.00000    18   19   20      1
    20   0.00000   0.00000  -0.02051   0.00342   90.00000   0.00000   0.00000    19   20   21      1
    21   0.00000   0.00000  -0.01709   0.00342   90.00000   0.00000   0.00000    20   21   22      1
    22   0.00000   0.00000  -0.01367   0.00342   90.00000   0.00000   0.00000    21   22   23      1
    23   0.00000   0.00000  -0.01025   0.00342   90.00000   0.00000   0.00000    22   23   24      1
    24   0.00000   0.00000  -0.00684   0.00342   90.00000   0.00000   0.00000    23   24   25      1
    25   0.00000   0.00000  -0.00342   0.00342   90.00000   0.00000   0.00000    24   25   26      1
    26   0.00000   0.00000   0.00000   0.00342   90.00000   0.00000   0.00000    25   26   27      1
    27   0.00000   0.00000   0.00342   0.00342   90.00000   0.00000   0.00000    26   27   28      1
    28   0.00000   0.00000   0.00684   0.00342   90.00000   0.00000   0.00000    27   28   29      1
    29   0.00000   0.00000   0.01025   0.00342   90.00000   0.00000   0.00000    28   29   30      1
    30   0.00000   0.00000   0.01367   0.00342   90.00000   0.00000   0.00000    29   30   31      1
    31   0.00000   0.00000   0.01709   0.00342   90.00000   0.00000   0.00000    30   31   32      1
    32   0.00000   0.00000   0.02051   0.00342   90.00000   0.00000   0.00000    31   32   33      1
    33   0.00000   0.00000   0.02392   0.00342   90.00000   0.00000   0.00000    32   33   34      1
    34   0.00000   0.00000   0.02734   0.00342   90.00000   0.00000   0.00000    33   34   35      1
    35   0.00000   0.00000   0.03076   0.00342   90.00000   0.00000   0.00000    34   35   36      1
    36   0.00000   0.00000   0.03418   0.00342   90.00000   0.00000   0.00000    35   36   37      1
    37   0.00000   0.00000   0.03759   0.00342   90.00000   0.00000   0.00000    36   37   38      1
    38   0.00000   0.00000   0.04101   0.00342   90.00000   0.00000   0.00000    37   38   39      1
    39   0.00000   0.00000   0.04443   0.00342   90.00000   0.00000   0.00000    38   39   40      1
    40   0.00000   0.00000   0.04785   0.00342   90.00000   0.00000   0.00000    39   40   41      1
    41   0.00000   0.00000   0.05126   0.00342   90.00000   0.00000   0.00000    40   41   42      1
    42   0.00000   0.00000   0.05468   0.00342   90.00000   0.00000   0.00000    41   42   43      1
    43   0.00000   0.00000   0.05810   0.00342   90.00000   0.00000   0.00000    42   43   44      1
    44   0.00000   0.00000   0.06152   0.00342   90.00000   0.00000   0.00000    43   44   45      1
    45   0.00000   0.00000   0.06493   0.00342   90.00000   0.00000   0.00000    44   45   46      1
    46   0.00000   0.00000   0.06835   0.00342   90.00000   0.00000   0.00000    45   46   47      1
    47   0.00000   0.00000   0.07177   0.00342   90.00000   0.00000   0.00000    46   47   48      1
    48   0.00000   0.00000   0.07519   0.00342   90.00000   0.00000   0.00000    47   48   49      1
    49   0.00000   0.00000   0.07860   0.00342   90.00000   0.00000   0.00000    48   49   50      1
    50   0.00000   0.00000   0.08202   0.00342   90.00000   0.00000   0.00000    49   50   51      1
    51   0.00000   0.00000   0.08544   0.00342   90.00000   0.00000   0.00000    50   51    0      1






 ***** DATA CARD NO.  1   GN  -1     0     0     0  0.00000E+00  0.00000E+00  0.00000E+00  0.00000E+00  0.00000E+00  0.00000E+00
 ***** DATA CARD NO.  2   EK   0     0     0     0  0.00000E+00  0.00000E+00  0.00000E+00  0.00000E+00  0.00000E+00  0.00000E+00
 ***** DATA CARD NO.  3   EX   0     1    26     0  1.00000E+00  0.00000E+00  0.00000E+00  0.00000E+00  0.00000E+00  0.00000E+00
 ***** DATA CARD NO.  4   FR   0     0     0     0  8.60000E+02  0.00000E+00  0.00000E+00  0.00000E+00  0.00000E+00  0.00000E+00
 ***** DATA CARD NO.  5   XQ   0     0     0     0  0.00000E+00  0.00000E+00  0.00000E+00  0.00000E+00  0.00000E+00  0.00000E+00




                                 - - - - - - FREQUENCY - - - - - -

                                    FREQUENCY= 8.6000E+02 MHZ
                                    WAVELENGTH= 3.4860E-01 METERS




                    APPROXIMATE INTEGRATION EMPLOYED FOR SEGMENTS MORE THAN   1.000 WAVELENGTHS APART

                    THE EXTENDED THIN WIRE KERNEL WILL BE USED



                               - - - STRUCTURE IMPEDANCE LOADING - - -

                                   THIS STRUCTURE IS NOT LOADED



                                  - - - ANTENNA ENVIRONMENT - - -

                                            FREE SPACE



                                - - - MATRIX TIMING - - -

                        FILL=    0.000 SEC.,  FACTOR=    0.000 SEC.



                                          - - - ANTENNA INPUT PARAMETERS - - -

   TAG   SEG.    VOLTAGE (VOLTS)         CURRENT (AMPS)         IMPEDANCE (OHMS)        ADMITTANCE (MHOS)      POWER
   NO.   NO.    REAL        IMAG.       REAL        IMAG.       REAL        IMAG.       REAL        IMAG.     (WATTS)
     1    26 1.00000E+00 0.00000E+00 9.88907E-03-5.67252E-03 7.60867E+01 4.36445E+01 9.88907E-03-5.67252E-03 4.94453E-03



                             - - - CURRENTS AND LOCATION - - -

                                 DISTANCES IN WAVELENGTHS


  SEG.  TAG    COORD. OF SEG. CENTER     SEG.            - - - CURRENT (AMPS) - - -
  NO.   NO.     X        Y        Z      LENGTH     REAL        IMAG.       MAG.        PHASE
     1    1   0.0000   0.0000  -0.2451  0.00980   3.4382E-04 -2.1703E-04  4.0659E-04  -32.262
     2    1   0.0000   0.0000  -0.2353  0.00980   9.9168E-04 -6.2444E-04  1.1719E-03  -32.198
     3    1   0.0000   0.0000  -0.2255  0.00980   1.6159E-03 -1.0150E-03  1.9082E-03  -32.133
     4    1   0.0000   0.0000  -0.2157  0.00980   2.2254E-03 -1.3942E-03  2.6261E-03  -32.066
     5    1   0.0000   0.0000  -0.2059  0.00980   2.8212E-03 -1.7628E-03  3.3267E-03  -31.998
     6    1   0.0000   0.0000  -0.1961  0.00980   3.4028E-03 -2.1204E-03  4.0094E-03  -31.929
     7    1   0.0000   0.0000  -0.1863  0.00980   3.9689E-03 -2.4664E-03  4.6728E-03  -31.858
     8    1   0.0000   0.0000  -0.1765  0.00980   4.5182E-03 -2.7998E-03  5.3153E-03  -31.786
     9    1   0.0000   0.0000  -0.1667  0.00980   5.0491E-03 -3.1197E-03  5.9352E-03  -31.711
    10    1   0.0000   0.0000  -0.1569  0.00980   5.5600E-03 -3.4252E-03  6.5304E-03  -31.634
    11    1   0.0000   0.0000  -0.1471  0.00980   6.0494E-03 -3.7151E-03  7.0991E-03  -31.555
    12    1   0.0000   0.0000  -0.1373  0.00980   6.5156E-03 -3.9886E-03  7.6395E-03  -31.474
    13    1   0.0000   0.0000  -0.1274  0.00980   6.9570E-03 -4.2447E-03  8.1497E-03  -31.389
    14    1   0.0000   0.0000  -0.1176  0.00980   7.3722E-03 -4.4826E-03  8.6280E-03  -31.301
    15    1   0.0000   0.0000  -0.1078  0.00980   7.7598E-03 -4.7013E-03  9.0728E-03  -31.210
    16    1   0.0000   0.0000  -0.0980  0.00980   8.1183E-03 -4.9002E-03  9.4826E-03  -31.115
    17    1   0.0000   0.0000  -0.0882  0.00980   8.4467E-03 -5.0784E-03  9.8558E-03  -31.016
    18    1   0.0000   0.0000  -0.0784  0.00980   8.7436E-03 -5.2354E-03  1.0191E-02  -30.912
    19    1   0.0000   0.0000  -0.0686  0.00980   9.0082E-03 -5.3705E-03  1.0488E-02  -30.802
    20    1   0.0000   0.0000  -0.0588  0.00980   9.2394E-03 -5.4831E-03  1.0744E-02  -30.687
    21    1   0.0000   0.0000  -0.0490  0.00980   9.4364E-03 -5.5729E-03  1.0959E-02  -30.565
    22    1   0.0000   0.0000  -0.0392  0.00980   9.5986E-03 -5.6394E-03  1.1133E-02  -30.435
    23    1   0.0000   0.0000  -0.0294  0.00980   9.7253E-03 -5.6821E-03  1.1264E-02  -30.296
    24    1   0.0000   0.0000  -0.0196  0.00980   9.8162E-03 -5.7007E-03  1.1351E-02  -30.145
    25    1   0.0000   0.0000  -0.0098  0.00980   9.8708E-03 -5.6942E-03  1.1395E-02  -29.979
    26    1   0.0000   0.0000   0.0000  0.00980   9.8891E-03 -5.6725E-03  1.1400E-02  -29.839
    27    1   0.0000   0.0000   0.0098  0.00980   9.8708E-03 -5.6942E-03  1.1395E-02  -29.979
    28    1   0.0000   0.0000   0.0196  0.00980   9.8162E-03 -5.7007E-03  1.1351E-02  -30.145
    29    1   0.0000   0.0000   0.0294  0.00980   9.7253E-03 -5.6821E-03  1.1264E-02  -30.296
    30    1   0.0000   0.0000   0.0392  0.00980   9.5986E-03 -5.6394E-03  1.1133E-02  -30.435
    31    1   0.0000   0.0000   0.0490  0.00980   9.4364E-03 -5.5729E-03  1.0959E-02  -30.565
    32    1   0.0000   0.0000   0.0588  0.00980   9.2394E-03 -5.4831E-03  1.0744E-02  -30.687
    33    1   0.0000   0.0000   0.0686  0.00980   9.0082E-03 -5.3705E-03  1.0488E-02  -30.802
    34    1   0.0000   0.0000   0.0784  0.00980   8.7436E-03 -5.2354E-03  1.0191E-02  -30.912
    35    1   0.0000   0.0000   0.0882  0.00980   8.4467E-03 -5.0784E-03  9.8558E-03  -31.016
    36    1   0.0000   0.0000   0.0980  0.00980   8.1183E-03 -4.9002E-03  9.4826E-03  -31.115
    37    1   0.0000   0.0000   0.1078  0.00980   7.7598E-03 -4.7013E-03  9.0728E-03  -31.210
    38    1   0.0000   0.0000   0.1176  0.00980   7.3722E-03 -4.4826E-03  8.6280E-03  -31.301
    39    1   0.0000   0.0000   0.1274  0.00980   6.9570E-03 -4.2447E-03  8.1497E-03  -31.389
    40    1   0.0000   0.0000   0.1373  0.00980   6.5156E-03 -3.9886E-03  7.6395E-03  -31.474
    41    1   0.0000   0.0000   0.1471  0.00980   6.0494E-03 -3.7151E-03  7.0991E-03  -31.555
    42    1   0.0000   0.0000   0.1569  0.00980   5.5600E-03 -3.4252E-03  6.5304E-03  -31.634
    43    1   0.0000   0.0000   0.1667  0.00980   5.0491E-03 -3.1197E-03  5.9352E-03  -31.711
    44    1   0.0000   0.0000   0.1765  0.00980   4.5182E-03 -2.7998E-03  5.3153E-03  -31.786
    45    1   0.0000   0.0000   0.1863  0.00980   3.9689E-03 -2.4664E-03  4.6728E-03  -31.858
    46    1   0.0000   0.0000   0.1961  0.00980   3.4028E-03 -2.1204E-03  4.0094E-03  -31.929
    47    1   0.0000   0.0000   0.2059  0.00980   2.8212E-03 -1.7628E-03  3.3267E-03  -31.998
    48    1   0.0000   0.0000   0.2157  0.00980   2.2254E-03 -1.3942E-03  2.6261E-03  -32.066
    49    1   0.0000   0.0000   0.2255  0.00980   1.6159E-03 -1.0150E-03  1.9082E-03  -32.133
    50    1   0.0000   0.0000   0.2353  0.00980   9.9168E-04 -6.2444E-04  1.1719E-03  -32.198
    51    1   0.0000   0.0000   0.2451  0.00980   3.4382E-04 -2.1703E-04  4.0659E-04  -32.262



                                        - - - POWER BUDGET - - -

                                           INPUT POWER   = 4.9445E-03 WATTS
                                           RADIATED POWER= 4.9445E-03 WATTS
                                           STRUCTURE LOSS= 0.0000E+00 WATTS
                                           NETWORK LOSS  = 0.0000E+00 WATTS
                                           EFFICIENCY    = 100.00 PERCENT






 ***** DATA CARD NO.  6   FR   0    13     0     0  8.60000E+02  2.15000E+02  0.00000E+00  0.00000E+00  0.00000E+00  0.00000E+00
 ***** DATA CARD NO.  7   RP   0   181     1  1000 -1.80000E+02  0.00000E+00  2.00000E+00  0.00000E+00  0.00000E+00  0.00000E+00




                                 - - - - - - FREQUENCY - - - - - -

                                    FREQUENCY= 8.6000E+02 MHZ
                                    WAVELENGTH= 3.4860E-01 METERS




                    APPROXIMATE INTEGRATION EMPLOYED FOR SEGMENTS MORE THAN   1.000 WAVELENGTHS APART

                    THE EXTENDED THIN WIRE KERNEL WILL BE USED



                               - - - STRUCTURE IMPEDANCE LOADING - - -

                                   THIS STRUCTURE IS NOT LOADED



                                  - - - ANTENNA ENVIRONMENT - - -

                                            FREE SPACE



                                - - - MATRIX TIMING - - -

                        FILL=    0.016 SEC.,  FACTOR=    0.000 SEC.



                                          - - - ANTENNA INPUT PARAMETERS - - -

   TAG   SEG.    VOLTAGE (VOLTS)         CURRENT (AMPS)         IMPEDANCE (OHMS)        ADMITTANCE (MHOS)      POWER
   NO.   NO.    REAL        IMAG.       REAL        IMAG.       REAL        IMAG.       REAL        IMAG.     (WATTS)
     1    26 1.00000E+00 0.00000E+00 9.88907E-03-5.67252E-03 7.60867E+01 4.36445E+01 9.88907E-03-5.67252E-03 4.94453E-03



                             - - - CURRENTS AND LOCATION - - -

                                 DISTANCES IN WAVELENGTHS


  SEG.  TAG    COORD. OF SEG. CENTER     SEG.            - - - CURRENT (AMPS) - - -
  NO.   NO.     X        Y        Z      LENGTH     REAL        IMAG.       MAG.        PHASE
     1    1   0.0000   0.0000  -0.2451  0.00980   3.4382E-04 -2.1703E-04  4.0659E-04  -32.262
     2    1   0.0000   0.0000  -0.2353  0.00980   9.9168E-04 -6.2444E-04  1.1719E-03  -32.198
     3    1   0.0000   0.0000  -0.2255  0.00980   1.6159E-03 -1.0150E-03  1.9082E-03  -32.133
     4    1   0.0000   0.0000  -0.2157  0.00980   2.2254E-03 -1.3942E-03  2.6261E-03  -32.066
     5    1   0.0000   0.0000  -0.2059  0.00980   2.8212E-03 -1.7628E-03  3.3267E-03  -31.998
     6    1   0.0000   0.0000  -0.1961  0.00980   3.4028E-03 -2.1204E-03  4.0094E-03  -31.929
     7    1   0.0000   0.0000  -0.1863  0.00980   3.9689E-03 -2.4664E-03  4.6728E-03  -31.858
     8    1   0.0000   0.0000  -0.1765  0.00980   4.5182E-03 -2.7998E-03  5.3153E-03  -31.786
     9    1   0.0000   0.0000  -0.1667  0.00980   5.0491E-03 -3.1197E-03  5.9352E-03  -31.711
    10    1   0.0000   0.0000  -0.1569  0.00980   5.5600E-03 -3.4252E-03  6.5304E-03  -31.634
    11    1   0.0000   0.0000  -0.1471  0.00980   6.0494E-03 -3.7151E-03  7.0991E-03  -31.555
    12    1   0.0000   0.0000  -0.1373  0.00980   6.5156E-03 -3.9886E-03  7.6395E-03  -31.474
    13    1   0.0000   0.0000  -0.1274  0.00980   6.9570E-03 -4.2447E-03  8.1497E-03  -31.389
    14    1   0.0000   0.0000  -0.1176  0.00980   7.3722E-03 -4.4826E-03  8.6280E-03  -31.301
    15    1   0.0000   0.0000  -0.1078  0.00980   7.7598E-03 -4.7013E-03  9.0728E-03  -31.210
    16    1   0.0000   0.0000  -0.0980  0.00980   8.1183E-03 -4.9002E-03  9.4826E-03  -31.115
    17    1   0.0000   0.0000  -0.0882  0.00980   8.4467E-03 -5.0784E-03  9.8558E-03  -31.016
    18    1   0.0000   0.0000  -0.0784  0.00980   8.7436E-03 -5.2354E-03  1.0191E-02  -30.912
    19    1   0.0000   0.0000  -0.0686  0.00980   9.0082E-03 -5.3705E-03  1.0488E-02  -30.802
    20    1   0.0000   0.0000  -0.0588  0.00980   9.2394E-03 -5.4831E-03  1.0744E-02  -30.687
    21    1   0.0000   0.0000  -0.0490  0.00980   9.4364E-03 -5.5729E-03  1.0959E-02  -30.565
    22    1   0.0000   0.0000  -0.0392  0.00980   9.5986E-03 -5.6394E-03  1.1133E-02  -30.435
    23    1   0.0000   0.0000  -0.0294  0.00980   9.7253E-03 -5.6821E-03  1.1264E-02  -30.296
    24    1   0.0000   0.0000  -0.0196  0.00980   9.8162E-03 -5.7007E-03  1.1351E-02  -30.145
    25    1   0.0000   0.0000  -0.0098  0.00980   9.8708E-03 -5.6942E-03  1.1395E-02  -29.979
    26    1   0.0000   0.0000   0.0000  0.00980   9.8891E-03 -5.6725E-03  1.1400E-02  -29.839
    27    1   0.0000   0.0000   0.0098  0.00980   9.8708E-03 -5.6942E-03  1.1395E-02  -29.979
    28    1   0.0000   0.0000   0.0196  0.00980   9.8162E-03 -5.7007E-03  1.1351E-02  -30.145
    29    1   0.0000   0.0000   0.0294  0.00980   9.7253E-03 -5.6821E-03  1.1264E-02  -30.296
    30    1   0.0000   0.0000   0.0392  0.00980   9.5986E-03 -5.6394E-03  1.1133E-02  -30.435
    31    1   0.0000   0.0000   0.0490  0.00980   9.4364E-03 -5.5729E-03  1.0959E-02  -30.565
    32    1   0.0000   0.0000   0.0588  0.00980   9.2394E-03 -5.4831E-03  1.0744E-02  -30.687
    33    1   0.0000   0.0000   0.0686  0.00980   9.0082E-03 -5.3705E-03  1.0488E-02  -30.802
    34    1   0.0000   0.0000   0.0784  0.00980   8.7436E-03 -5.2354E-03  1.0191E-02  -30.912
    35    1   0.0000   0.0000   0.0882  0.00980   8.4467E-03 -5.0784E-03  9.8558E-03  -31.016
    36    1   0.0000   0.0000   0.0980  0.00980   8.1183E-03 -4.9002E-03  9.4826E-03  -31.115
    37    1   0.0000   0.0000   0.1078  0.00980   7.7598E-03 -4.7013E-03  9.0728E-03  -31.210
    38    1   0.0000   0.0000   0.1176  0.00980   7.3722E-03 -4.4826E-03  8.6280E-03  -31.301
    39    1   0.0000   0.0000   0.1274  0.00980   6.9570E-03 -4.2447E-03  8.1497E-03  -31.389
    40    1   0.0000   0.0000   0.1373  0.00980   6.5156E-03 -3.9886E-03  7.6395E-03  -31.474
    41    1   0.0000   0.0000   0.1471  0.00980   6.0494E-03 -3.7151E-03  7.0991E-03  -31.555
    42    1   0.0000   0.0000   0.1569  0.00980   5.5600E-03 -3.4252E-03  6.5304E-03  -31.634
    43    1   0.0000   0.0000   0.1667  0.00980   5.0491E-03 -3.1197E-03  5.9352E-03  -31.711
    44    1   0.0000   0.0000   0.1765  0.00980   4.5182E-03 -2.7998E-03  5.3153E-03  -31.786
    45    1   0.0000   0.0000   0.1863  0.00980   3.9689E-03 -2.4664E-03  4.6728E-03  -31.858
    46    1   0.0000   0.0000   0.1961  0.00980   3.4028E-03 -2.1204E-03  4.0094E-03  -31.929
    47    1   0.0000   0.0000   0.2059  0.00980   2.8212E-03 -1.7628E-03  3.3267E-03  -31.998
    48    1   0.0000   0.0000   0.2157  0.00980   2.2254E-03 -1.3942E-03  2.6261E-03  -32.066
    49    1   0.0000   0.0000   0.2255  0.00980   1.6159E-03 -1.0150E-03  1.9082E-03  -32.133
    50    1   0.0000   0.0000   0.2353  0.00980   9.9168E-04 -6.2444E-04  1.1719E-03  -32.198
    51    1   0.0000   0.0000   0.2451  0.00980   3.4382E-04 -2.1703E-04  4.0659E-04  -32.262



                                        - - - POWER BUDGET - - -

                                           INPUT POWER   = 4.9445E-03 WATTS
                                           RADIATED POWER= 4.9445E-03 WATTS
                                           STRUCTURE LOSS= 0.0000E+00 WATTS
                                           NETWORK LOSS  = 0.0000E+00 WATTS
                                           EFFICIENCY    = 100.00 PERCENT



                                                - - - RADIATION PATTERNS - - -

  - - ANGLES - -           - POWER GAINS -       - - - POLARIZATION - - -    - - - E(THETA) - - -    - - - E(PHI) - - -
  THETA     PHI        VERT.   HOR.    TOTAL      AXIAL     TILT   SENSE     MAGNITUDE    PHASE      MAGNITUDE    PHASE 
 DEGREES  DEGREES       DB      DB      DB        RATIO     DEG.              VOLTS/M    DEGREES      VOLTS/M    DEGREES
 -180.00     0.00    -999.99 -999.99 -999.99    0.00000     0.00            5.56561E-12    59.20    0.00000E+00     0.00
 -178.00     0.00     -29.13 -999.99  -29.13    0.00000     0.00  LINEAR    1.90360E-02  -120.80    0.00000E+00     0.00
 -176.00     0.00     -23.10 -999.99  -23.10    0.00000     0.00  LINEAR    3.80844E-02  -120.80    0.00000E+00     0.00
 -174.00     0.00     -19.58 -999.99  -19.58    0.00000     0.00  LINEAR    5.71572E-02  -120.80    0.00000E+00     0.00
 -172.00     0.00     -17.07 -999.99  -17.07    0.00000     0.00  LINEAR    7.62658E-02  -120.80    0.00000E+00     0.00
 -170.00     0.00     -15.13 -999.99  -15.13    0.00000     0.00  LINEAR    9.54205E-02  -120.80    0.00000E+00     0.00
 -168.00     0.00     -13.53 -999.99  -13.53    0.00000     0.00  LINEAR    1.14630E-01  -120.81    0.00000E+00     0.00
 -166.00     0.00     -12.18 -999.99  -12.18    0.00000     0.00  LINEAR    1.33903E-01  -120.81    0.00000E+00     0.00
 -164.00     0.00     -11.01 -999.99  -11.01    0.00000     0.00  LINEAR    1.53244E-01  -120.81    0.00000E+00     0.00
 -162.00     0.00      -9.98 -999.99   -9.98    0.00000     0.00  LINEAR    1.72657E-01  -120.82    0.00000E+00     0.00
 -160.00     0.00      -9.05 -999.99   -9.05    0.00000     0.00  LINEAR    1.92143E-01  -120.82    0.00000E+00     0.00
 -158.00     0.00      -8.21 -999.99   -8.21    0.00000     0.00  LINEAR    2.11700E-01  -120.83    0.00000E+00     0.00
 -156.00     0.00      -7.44 -999.99   -7.44    0.00000     0.00  LINEAR    2.31322E-01  -120.83    0.00000E+00     0.00
 -154.00     0.00      -6.73 -999.99   -6.73    0.00000     0.00  LINEAR    2.51004E-01  -120.83    0.00000E+00     0.00
 -152.00     0.00      -6.07 -999.99   -6.07    0.00000     0.00  LINEAR    2.70732E-01  -120.84    0.00000E+00     0.00
 -150.00     0.00      -5.46 -999.99   -5.46    0.00000     0.00  LINEAR    2.90492E-01  -120.84    0.00000E+00     0.00
 -148.00     0.00      -4.89 -999.99   -4.89    0.00000     0.00  LINEAR    3.10265E-01  -120.85    0.00000E+00     0.00
 -146.00     0.00      -4.35 -999.99   -4.35    0.00000     0.00  LINEAR    3.30030E-01  -120.86    0.00000E+00     0.00
 -144.00     0.00      -3.84 -999.99   -3.84    0.00000     0.00  LINEAR    3.49759E-01  -120.86    0.00000E+00     0.00
 -142.00     0.00      -3.37 -999.99   -3.37    0.00000     0.00  LINEAR    3.69423E-01  -120.87    0.00000E+00     0.00
 -140.00     0.00      -2.92 -999.99   -2.92    0.00000     0.00  LINEAR    3.88989E-01  -120.87    0.00000E+00     0.00
 -138.00     0.00      -2.50 -999.99   -2.50    0.00000     0.00  LINEAR    4.08417E-01  -120.88    0.00000E+00     0.00
 -136.00     0.00      -2.10 -999.99   -2.10    0.00000     0.00  LINEAR    4.27667E-01  -120.89    0.00000E+00     0.00
 -134.00     0.00      -1.72 -999.99   -1.72    0.00000     0.00  LINEAR    4.46694E-01  -120.89    0.00000E+00     0.00
 -132.00     0.00      -1.36 -999.99   -1.36    0.00000     0.00  LINEAR    4.65450E-01  -120.90    0.00000E+00     0.00
 -130.00     0.00      -1.02 -999.99   -1.02    0.00000     0.00  LINEAR    4.83884E-01  -120.90    0.00000E+00     0.00
 -128.00     0.00      -0.71 -999.99   -0.71    0.00000     0.00  LINEAR    5.01941E-01  -120.91    0.00000E+00     0.00
 -126.00     0.00      -0.41 -999.99   -0.41    0.00000     0.00  LINEAR    5.19566E-01  -120.91    0.00000E+00     0.00
 -124.00     0.00      -0.13 -999.99   -0.13    0.00000     0.00  LINEAR    5.36700E-01  -120.92    0.00000E+00     0.00
 -122.00     0.00       0.14 -999.99    0.14    0.00000     0.00  LINEAR    5.53284E-01  -120.92    0.00000E+00     0.00
 -120.00     0.00       0.39 -999.99    0.39    0.00000     0.00  LINEAR    5.69257E-01  -120.93    0.00000E+00     0.00
 -118.00     0.00       0.62 -999.99    0.62    0.00000     0.00  LINEAR    5.84559E-01  -120.93    0.00000E+00     0.00
 -116.00     0.00       0.83 -999.99    0.83    0.00000     0.00  LINEAR    5.99129E-01  -120.94    0.00000E+00     0.00
 -114.00     0.00       1.03 -999.99    1.03    0.00000     0.00  LINEAR    6.12906E-01  -120.94    0.00000E+00     0.00
 -112.00     0.00       1.21 -999.99    1.21    0.00000     0.00  LINEAR    6.25832E-01  -120.95    0.00000E+00     0.00
 -110.00     0.00       1.37 -999.99    1.37    0.00000     0.00  LINEAR    6.37850E-01  -120.95    0.00000E+00     0.00
 -108.00     0.00       1.52 -999.99    1.52    0.00000     0.00  LINEAR    6.48906E-01  -120.95    0.00000E+00     0.00
 -106.00     0.00       1.66 -999.99    1.66    0.00000     0.00  LINEAR    6.58948E-01  -120.96    0.00000E+00     0.00
 -104.00     0.00       1.77 -999.99    1.77    0.00000     0.00  LINEAR    6.67928E-01  -120.96    0.00000E+00     0.00
 -102.00     0.00       1.88 -999.99    1.88    0.00000     0.00  LINEAR    6.75804E-01  -120.96    0.00000E+00     0.00
 -100.00     0.00       1.96 -999.99    1.96    0.00000     0.00  LINEAR    6.82537E-01  -120.96    0.00000E+00     0.00
  -98.00     0.00       2.03 -999.99    2.03    0.00000     0.00  LINEAR    6.88093E-01  -120.96    0.00000E+00     0.00
  -96.00     0.00       2.09 -999.99    2.09    0.00000     0.00  LINEAR    6.92444E-01  -120.96    0.00000E+00     0.00
  -94.00     0.00       2.13 -999.99    2.13    0.00000     0.00  LINEAR    6.95567E-01  -120.97    0.00000E+00     0.00
  -92.00     0.00       2.15 -999.99    2.15    0.00000     0.00  LINEAR    6.97448E-01  -120.97    0.00000E+00     0.00
  -90.00     0.00       2.16 -999.99    2.16    0.00000     0.00  LINEAR    6.98076E-01  -120.97    0.00000E+00     0.00
  -88.00     0.00       2.15 -999.99    2.15    0.00000     0.00  LINEAR    6.97448E-01  -120.97    0.00000E+00     0.00
  -86.00     0.00       2.13 -999.99    2.13    0.00000     0.00  LINEAR    6.95567E-01  -120.97    0.00000E+00     0.00
  -84.00     0.00       2.09 -999.99    2.09    0.00000     0.00  LINEAR    6.92444E-01  -120.96    0.00000E+00     0.00
  -82.00     0.00       2.03 -999.99    2.03    0.00000     0.00  LINEAR    6.88093E-01  -120.96    0.00000E+00     0.00
  -80.00     0.00       1.96 -999.99    1.96    0.00000     0.00  LINEAR    6.82537E-01  -120.96    0.00000E+00     0.00
  -78.00     0.00       1.88 -999.99    1.88    0.00000     0.00  LINEAR    6.75804E-01  -120.96    0.00000E+00     0.00
  -76.00     0.00       1.77 -999.99    1.77    0.00000     0.00  LINEAR    6.67928E-01  -120.96    0.00000E+00     0.00
  -74.00     0.00       1.66 -999.99    1.66    0.00000     0.00  LINEAR    6.58948E-01  -120.96    0.00000E+00     0.00
  -72.00     0.00       1.52 -999.99    1.52    0.00000     0.00  LINEAR    6.48906E-01  -120.95    0.00000E+00     0.00
  -70.00     0.00       1.37 -999.99    1.37    0.00000     0.00  LINEAR    6.37850E-01  -120.95    0.00000E+00     0.00
  -68.00     0.00       1.21 -999.99    1.21    0.00000     0.00  LINEAR    6.25832E-01  -120.95    0.00000E+00     0.00
  -66.00     0.00       1.03 -999.99    1.03    0.00000     0.00  LINEAR    6.12906E-01  -120.94    0.00000E+00     0.00
  -64.00     0.00       0.83 -999.99    0.83    0.00000     0.00  LINEAR    5.99129E-01  -120.94    0.00000E+00     0.00
  -62.00     0.00       0.62 -999.99    0.62    0.00000     0.00  LINEAR    5.84559E-01  -120.93    0.00000E+00     0.00
  -60.00     0.00       0.39 -999.99    0.39    0.00000     0.00  LINEAR    5.69257E-01  -120.93    0.00000E+00     0.00
  -58.00     0.00       0.14 -999.99    0.14    0.00000     0.00  LINEAR    5.53284E-01  -120.92    0.00000E+00     0.00
  -56.00     0.00      -0.13 -999.99   -0.13    0.00000     0.00  LINEAR    5.36700E-01  -120.92    0.00000E+00     0.00
  -54.00     0.00      -0.41 -999.99   -0.41    0.00000     0.00  LINEAR    5.19566E-01  -120.91    0.00000E+00     0.00
  -52.00     0.00      -0.71 -999.99   -0.71    0.00000     0.00  LINEAR    5.01941E-01  -120.91    0.00000E+00     0.00
  -50.00     0.00      -1.02 -999.99   -1.02    0.00000     0.00  LINEAR    4.83884E-01  -120.90    0.00000E+00     0.00
  -48.00     0.00      -1.36 -999.99   -1.36    0.00000     0.00  LINEAR    4.65450E-01  -120.90    0.00000E+00     0.00
  -46.00     0.00      -1.72 -999.99   -1.72    0.00000     0.00  LINEAR    4.46694E-01  -120.89    0.00000E+00     0.00
  -44.00     0.00      -2.10 -999.99   -2.10    0.00000     0.00  LINEAR    4.27667E-01  -120.89    0.00000E+00     0.00
  -42.00     0.00      -2.50 -999.99   -2.50    0.00000     0.00  LINEAR    4.08417E-01  -120.88    0.00000E+00     0.00
  -40.00     0.00      -2.92 -999.99   -2.92    0.00000     0.00  LINEAR    3.88989E-01  -120.87    0.00000E+00     0.00
  -38.00     0.00      -3.37 -999.99   -3.37    0.00000     0.00  LINEAR    3.69423E-01  -120.87    0.00000E+00     0.00
  -36.00     0.00      -3.84 -999.99   -3.84    0.00000     0.00  LINEAR    3.49759E-01  -120.86    0.00000E+00     0.00
  -34.00     0.00      -4.35 -999.99   -4.35    0.00000     0.00  LINEAR    3.30030E-01  -120.86    0.00000E+00     0.00
  -32.00     0.00      -4.89 -999.99   -4.89    0.00000     0.00  LINEAR    3.10265E-01  -120.85    0.00000E+00     0.00
  -30.00     0.00      -5.46 -999.99   -5.46    0.00000     0.00  LINEAR    2.90492E-01  -120.84    0.00000E+00     0.00
  -28.00     0.00      -6.07 -999.99   -6.07    0.00000     0.00  LINEAR    2.70732E-01  -120.84    0.00000E+00     0.00
  -26.00     0.00      -6.73 -999.99   -6.73    0.00000     0.00  LINEAR    2.51004E-01  -120.83    0.00000E+00     0.00
  -24.00     0.00      -7.44 -999.99   -7.44    0.00000     0.00  LINEAR    2.31322E-01  -120.83    0.00000E+00     0.00
  -22.00     0.00      -8.21 -999.99   -8.21    0.00000     0.00  LINEAR    2.11700E-01  -120.83    0.00000E+00     0.00
  -20.00     0.00      -9.05 -999.99   -9.05    0.00000     0.00  LINEAR    1.92143E-01  -120.82    0.00000E+00     0.00
  -18.00     0.00      -9.98 -999.99   -9.98    0.00000     0.00  LINEAR    1.72657E-01  -120.82    0.00000E+00     0.00
  -16.00     0.00     -11.01 -999.99  -11.01    0.00000     0.00  LINEAR    1.53244E-01  -120.81    0.00000E+00     0.00
  -14.00     0.00     -12.18 -999.99  -12.18    0.00000     0.00  LINEAR    1.33903E-01  -120.81    0.00000E+00     0.00
  -12.00     0.00     -13.53 -999.99  -13.53    0.00000     0.00  LINEAR    1.14630E-01  -120.81    0.00000E+00     0.00
  -10.00     0.00     -15.13 -999.99  -15.13    0.00000     0.00  LINEAR    9.54205E-02  -120.80    0.00000E+00     0.00
   -8.00     0.00     -17.07 -999.99  -17.07    0.00000     0.00  LINEAR    7.62658E-02  -120.80    0.00000E+00     0.00
   -6.00     0.00     -19.58 -999.99  -19.58    0.00000     0.00  LINEAR    5.71572E-02  -120.80    0.00000E+00     0.00
   -4.00     0.00     -23.10 -999.99  -23.10    0.00000     0.00  LINEAR    3.80844E-02  -120.80    0.00000E+00     0.00
   -2.00     0.00     -29.13 -999.99  -29.13    0.00000     0.00  LINEAR    1.90360E-02  -120.80    0.00000E+00     0.00
    0.00     0.00    -999.99 -999.99 -999.99    0.00000     0.00            0.00000E+00     0.00    0.00000E+00     0.00
    2.00     0.00     -29.13 -999.99  -29.13    0.00000     0.00  LINEAR    1.90360E-02    59.20    0.00000E+00     0.00
    4.00     0.00     -23.10 -999.99  -23.10    0.00000     0.00  LINEAR    3.80844E-02    59.20    0.00000E+00     0.00
    6.00     0.00     -19.58 -999.99  -19.58    0.00000     0.00  LINEAR    5.71572E-02    59.20    0.00000E+00     0.00
    8.00     0.00     -17.07 -999.99  -17.07    0.00000     0.00  LINEAR    7.62658E-02    59.20    0.00000E+00     0.00
   10.00     0.00     -15.13 -999.99  -15.13    0.00000     0.00  LINEAR    9.54205E-02    59.20    0.00000E+00     0.00
   12.00     0.00     -13.53 -999.99  -13.53    0.00000     0.00  LINEAR    1.14630E-01    59.19    0.00000E+00     0.00
   14.00     0.00     -12.18 -999.99  -12.18    0.00000     0.00  LINEAR    1.33903E-01    59.19    0.00000E+00     0.00
   16.00     0.00     -11.01 -999.99  -11.01    0.00000     0.00  LINEAR    1.53244E-01    59.19    0.00000E+00     0.00
   18.00     0.00      -9.98 -999.99   -9.98    0.00000     0.00  LINEAR    1.72657E-01    59.18    0.00000E+00     0.00
   20.00     0.00      -9.05 -999.99   -9.05    0.00000     0.00  LINEAR    1.92143E-01    59.18    0.00000E+00     0.00
   22.00     0.00      -8.21 -999.99   -8.21    0.00000     0.00  LINEAR    2.11700E-01    59.17    0.00000E+00     0.00
   24.00     0.00      -7.44 -999.99   -7.44    0.00000     0.00  LINEAR    2.31322E-01    59.17    0.00000E+00     0.00
   26.00     0.00      -6.73 -999.99   -6.73    0.00000     0.00  LINEAR    2.51004E-01    59.17    0.00000E+00     0.00
   28.00     0.00      -6.07 -999.99   -6.07    0.00000     0.00  LINEAR    2.70732E-01    59.16    0.00000E+00     0.00
   30.00     0.00      -5.46 -999.99   -5.46    0.00000     0.00  LINEAR    2.90492E-01    59.16    0.00000E+00     0.00
   32.00     0.00      -4.89 -999.99   -4.89    0.00000     0.00  LINEAR    3.10265E-01    59.15    0.00000E+00     0.00
   34.00     0.00      -4.35 -999.99   -4.35    0.00000     0.00  LINEAR    3.30030E-01    59.14    0.00000E+00     0.00
   36.00     0.00      -3.84 -999.99   -3.84    0.00000     0.00  LINEAR    3.49759E-01    59.14    0.00000E+00     0.00
   38.00     0.00      -3.37 -999.99   -3.37    0.00000     0.00  LINEAR    3.69423E-01    59.13    0.00000E+00     0.00
   40.00     0.00      -2.92 -999.99   -2.92    0.00000     0.00  LINEAR    3.88989E-01    59.13    0.00000E+00     0.00
   42.00     0.00      -2.50 -999.99   -2.50    0.00000     0.00  LINEAR    4.08417E-01    59.12    0.00000E+00     0.00
   44.00     0.00      -2.10 -999.99   -2.10    0.00000     0.00  LINEAR    4.27667E-01    59.11    0.00000E+00     0.00
   46.00     0.00      -1.72 -999.99   -1.72    0.00000     0.00  LINEAR    4.46694E-01    59.11    0.00000E+00     0.00
   48.00     0.00      -1.36 -999.99   -1.36    0.00000     0.00  LINEAR    4.65450E-01    59.10    0.00000E+00     0.00
   50.00     0.00      -1.02 -999.99   -1.02    0.00000     0.00  LINEAR    4.83884E-01    59.10    0.00000E+00     0.00
   52.00     0.00      -0.71 -999.99   -0.71    0.00000     0.00  LINEAR    5.01941E-01    59.09    0.00000E+00     0.00
   54.00     0.00      -0.41 -999.99   -0.41    0.00000     0.00  LINEAR    5.19566E-01    59.09    0.00000E+00     0.00
   56.00     0.00      -0.13 -999.99   -0.13    0.00000     0.00  LINEAR    5.36700E-01    59.08    0.00000E+00     0.00
   58.00     0.00       0.14 -999.99    0.14    0.00000     0.00  LINEAR    5.53284E-01    59.08    0.00000E+00     0.00
   60.00     0.00       0.39 -999.99    0.39    0.00000     0.00  LINEAR    5.69257E-01    59.07    0.00000E+00     0.00
   62.00     0.00       0.62 -999.99    0.62    0.00000     0.00  LINEAR    5.84559E-01    59.07    0.00000E+00     0.00
   64.00     0.00       0.83 -999.99    0.83    0.00000     0.00  LINEAR    5.99129E-01    59.06    0.00000E+00     0.00
   66.00     0.00       1.03 -999.99    1.03    0.00000     0.00  LINEAR    6.12906E-01    59.06    0.00000E+00     0.00
   68.00     0.00       1.21 -999.99    1.21    0.00000     0.00  LINEAR    6.25832E-01    59.05    0.00000E+00     0.00
   70.00     0.00       1.37 -999.99    1.37    0.00000     0.00  LINEAR    6.37850E-01    59.05    0.00000E+00     0.00
   72.00     0.00       1.52 -999.99    1.52    0.00000     0.00  LINEAR    6.48906E-01    59.05    0.00000E+00     0.00
   74.00     0.00       1.66 -999.99    1.66    0.00000     0.00  LINEAR    6.58948E-01    59.04    0.00000E+00     0.00
   76.00     0.00       1.77 -999.99    1.77    0.00000     0.00  LINEAR    6.67928E-01    59.04    0.00000E+00     0.00
   78.00     0.00       1.88 -999.99    1.88    0.00000     0.00  LINEAR    6.75804E-01    59.04    0.00000E+00     0.00
   80.00     0.00       1.96 -999.99    1.96    0.00000     0.00  LINEAR    6.82537E-01    59.04    0.00000E+00     0.00
   82.00     0.00       2.03 -999.99    2.03    0.00000     0.00  LINEAR    6.88093E-01    59.04    0.00000E+00     0.00
   84.00     0.00       2.09 -999.99    2.09    0.00000     0.00  LINEAR    6.92444E-01    59.04    0.00000E+00     0.00
   86.00     0.00       2.13 -999.99    2.13    0.00000     0.00  LINEAR    6.95567E-01    59.03    0.00000E+00     0.00
   88.00     0.00       2.15 -999.99    2.15    0.00000     0.00  LINEAR    6.97448E-01    59.03    0.00000E+00     0.00
   90.00     0.00       2.16 -999.99    2.16    0.00000     0.00  LINEAR    6.98076E-01    59.03    0.00000E+00     0.00
   92.00     0.00       2.15 -999.99    2.15    0.00000     0.00  LINEAR    6.97448E-01    59.03    0.00000E+00     0.00
   94.00     0.00       2.13 -999.99    2.13    0.00000     0.00  LINEAR    6.95567E-01    59.03    0.00000E+00     0.00
   96.00     0.00       2.09 -999.99    2.09    0.00000     0.00  LINEAR    6.92444E-01    59.04    0.00000E+00     0.00
   98.00     0.00       2.03 -999.99    2.03    0.00000     0.00  LINEAR    6.88093E-01    59.04    0.00000E+00     0.00
  100.00     0.00       1.96 -999.99    1.96    0.00000     0.00  LINEAR    6.82537E-01    59.04    0.00000E+00     0.00
  102.00     0.00       1.88 -999.99    1.88    0.00000     0.00  LINEAR    6.75804E-01    59.04    0.00000E+00     0.00
  104.00     0.00       1.77 -999.99    1.77    0.00000     0.00  LINEAR    6.67928E-01    59.04    0.00000E+00     0.00
  106.00     0.00       1.66 -999.99    1.66    0.00000     0.00  LINEAR    6.58948E-01    59.04    0.00000E+00     0.00
  108.00     0.00       1.52 -999.99    1.52    0.00000     0.00  LINEAR    6.48906E-01    59.05    0.00000E+00     0.00
  110.00     0.00       1.37 -999.99    1.37    0.00000     0.00  LINEAR    6.37850E-01    59.05    0.00000E+00     0.00
  112.00     0.00       1.21 -999.99    1.21    0.00000     0.00  LINEAR    6.25832E-01    59.05    0.00000E+00     0.00
  114.00     0.00       1.03 -999.99    1.03    0.00000     0.00  LINEAR    6.12906E-01    59.06    0.00000E+00     0.00
  116.00     0.00       0.83 -999.99    0.83    0.00000     0.00  LINEAR    5.99129E-01    59.06    0.00000E+00     0.00
  118.00     0.00       0.62 -999.99    0.62    0.00000     0.00  LINEAR    5.84559E-01    59.07    0.00000E+00     0.00
  120.00     0.00       0.39 -999.99    0.39    0.00000     0.00  LINEAR    5.69257E-01    59.07    0.00000E+00     0.00
  122.00     0.00       0.14 -999.99    0.14    0.00000     0.00  LINEAR    5.53284E-01    59.08    0.00000E+00     0.00
  124.00     0.00      -0.13 -999.99   -0.13    0.00000     0.00  LINEAR    5.36700E-01    59.08    0.00000E+00     0.00
  126.00     0.00      -0.41 -999.99   -0.41    0.00000     0.00  LINEAR    5.19566E-01    59.09    0.00000E+00     0.00
  128.00     0.00      -0.71 -999.99   -0.71    0.00000     0.00  LINEAR    5.01941E-01    59.09    0.00000E+00     0.00
  130.00     0.00      -1.02 -999.99   -1.02    0.00000     0.00  LINEAR    4.83884E-01    59.10    0.00000E+00     0.00
  132.00     0.00      -1.36 -999.99   -1.36    0.00000     0.00  LINEAR    4.65450E-01    59.10    0.00000E+00     0.00
  134.00     0.00      -1.72 -999.99   -1.72    0.00000     0.00  LINEAR    4.46694E-01    59.11    0.00000E+00     0.00
  136.00     0.00      -2.10 -999.99   -2.10    0.00000     0.00  LINEAR    4.27667E-01    59.11    0.00000E+00     0.00
  138.00     0.00      -2.50 -999.99   -2.50    0.00000     0.00  LINEAR    4.08417E-01    59.12    0.00000E+00     0.00
  140.00     0.00      -2.92 -999.99   -2.92    0.00000     0.00  LINEAR    3.88989E-01    59.13    0.00000E+00     0.00
  142.00     0.00      -3.37 -999.99   -3.37    0.00000     0.00  LINEAR    3.69423E-01    59.13    0.00000E+00     0.00
  144.00     0.00      -3.84 -999.99   -3.84    0.00000     0.00  LINEAR    3.49759E-01    59.14    0.00000E+00     0.00
  146.00     0.00      -4.35 -999.99   -4.35    0.00000     0.00  LINEAR    3.30030E-01    59.14    0.00000E+00     0.00
  148.00     0.00      -4.89 -999.99   -4.89    0.00000     0.00  LINEAR    3.10265E-01    59.15    0.00000E+00     0.00
  150.00     0.00      -5.46 -999.99   -5.46    0.00000     0.00  LINEAR    2.90492E-01    59.16    0.00000E+00     0.00
  152.00     0.00      -6.07 -999.99   -6.07    0.00000     0.00  LINEAR    2.70732E-01    59.16    0.00000E+00     0.00
  154.00     0.00      -6.73 -999.99   -6.73    0.00000     0.00  LINEAR    2.51004E-01    59.17    0.00000E+00     0.00
  156.00     0.00      -7.44 -999.99   -7.44    0.00000     0.00  LINEAR    2.31322E-01    59.17    0.00000E+00     0.00
  158.00     0.00      -8.21 -999.99   -8.21    0.00000     0.00  LINEAR    2.11700E-01    59.17    0.00000E+00     0.00
  160.00     0.00      -9.05 -999.99   -9.05    0.00000     0.00  LINEAR    1.92143E-01    59.18    0.00000E+00     0.00
  162.00     0.00      -9.98 -999.99   -9.98    0.00000     0.00  LINEAR    1.72657E-01    59.18    0.00000E+00     0.00
  164.00     0.00     -11.01 -999.99  -11.01    0.00000     0.00  LINEAR    1.53244E-01    59.19    0.00000E+00     0.00
  166.00     0.00     -12.18 -999.99  -12.18    0.00000     0.00  LINEAR    1.33903E-01    59.19    0.00000E+00     0.00
  168.00     0.00     -13.53 -999.99  -13.53    0.00000     0.00  LINEAR    1.14630E-01    59.19    0.00000E+00     0.00
  170.00     0.00     -15.13 -999.99  -15.13    0.00000     0.00  LINEAR    9.54205E-02    59.20    0.00000E+00     0.00
  172.00     0.00     -17.07 -999.99  -17.07    0.00000     0.00  LINEAR    7.62658E-02    59.20    0.00000E+00     0.00
  174.00     0.00     -19.58 -999.99  -19.58    0.00000     0.00  LINEAR    5.71572E-02    59.20    0.00000E+00     0.00
  176.00     0.00     -23.10 -999.99  -23.10    0.00000     0.00  LINEAR    3.80844E-02    59.20    0.00000E+00     0.00
  178.00     0.00     -29.13 -999.99  -29.13    0.00000     0.00  LINEAR    1.90360E-02    59.20    0.00000E+00     0.00
  180.00     0.00    -999.99 -999.99 -999.99    0.00000     0.00            5.56561E-12  -120.80    0.00000E+00     0.00




                                 - - - - - - FREQUENCY - - - - - -

                                    FREQUENCY= 1.0750E+03 MHZ
                                    WAVELENGTH= 2.7888E-01 METERS




                    APPROXIMATE INTEGRATION EMPLOYED FOR SEGMENTS MORE THAN   1.000 WAVELENGTHS APART

                    THE EXTENDED THIN WIRE KERNEL WILL BE USED



                               - - - STRUCTURE IMPEDANCE LOADING - - -

                                   THIS STRUCTURE IS NOT LOADED



                                  - - - ANTENNA ENVIRONMENT - - -

                                            FREE SPACE



                                - - - MATRIX TIMING - - -

                        FILL=    0.000 SEC.,  FACTOR=    0.000 SEC.



                                          - - - ANTENNA INPUT PARAMETERS - - -

   TAG   SEG.    VOLTAGE (VOLTS)         CURRENT (AMPS)         IMPEDANCE (OHMS)        ADMITTANCE (MHOS)      POWER
   NO.   NO.    REAL        IMAG.       REAL        IMAG.       REAL        IMAG.       REAL        IMAG.     (WATTS)
     1    26 1.00000E+00 0.00000E+00 2.74204E-04-1.25769E-03 1.65484E+02 7.59028E+02 2.74204E-04-1.25769E-03 1.37102E-04



                             - - - CURRENTS AND LOCATION - - -

                                 DISTANCES IN WAVELENGTHS


  SEG.  TAG    COORD. OF SEG. CENTER     SEG.            - - - CURRENT (AMPS) - - -
  NO.   NO.     X        Y        Z      LENGTH     REAL        IMAG.       MAG.        PHASE
     1    1   0.0000   0.0000  -0.3064  0.01225   8.3800E-06 -6.2773E-05  6.3330E-05  -82.396
     2    1   0.0000   0.0000  -0.2941  0.01225   2.4435E-05 -1.8077E-04  1.8241E-04  -82.302
     3    1   0.0000   0.0000  -0.2819  0.01225   4.0232E-05 -2.9388E-04  2.9662E-04  -82.205
     4    1   0.0000   0.0000  -0.2696  0.01225   5.5951E-05 -4.0347E-04  4.0733E-04  -82.105
     5    1   0.0000   0.0000  -0.2573  0.01225   7.1587E-05 -5.0951E-04  5.1452E-04  -82.002
     6    1   0.0000   0.0000  -0.2451  0.01225   8.7097E-05 -6.1168E-04  6.1785E-04  -81.896
     7    1   0.0000   0.0000  -0.2328  0.01225   1.0242E-04 -7.0955E-04  7.1690E-04  -81.786
     8    1   0.0000   0.0000  -0.2206  0.01225   1.1749E-04 -8.0268E-04  8.1123E-04  -81.672
     9    1   0.0000   0.0000  -0.2083  0.01225   1.3225E-04 -8.9060E-04  9.0036E-04  -81.554
    10    1   0.0000   0.0000  -0.1961  0.01225   1.4661E-04 -9.7284E-04  9.8383E-04  -81.430
    11    1   0.0000   0.0000  -0.1838  0.01225   1.6052E-04 -1.0490E-03  1.0612E-03  -81.300
    12    1   0.0000   0.0000  -0.1716  0.01225   1.7390E-04 -1.1186E-03  1.1320E-03  -81.164
    13    1   0.0000   0.0000  -0.1593  0.01225   1.8668E-04 -1.1813E-03  1.1959E-03  -81.020
    14    1   0.0000   0.0000  -0.1471  0.01225   1.9880E-04 -1.2367E-03  1.2526E-03  -80.868
    15    1   0.0000   0.0000  -0.1348  0.01225   2.1020E-04 -1.2845E-03  1.3016E-03  -80.706
    16    1   0.0000   0.0000  -0.1225  0.01225   2.2081E-04 -1.3244E-03  1.3427E-03  -80.534
    17    1   0.0000   0.0000  -0.1103  0.01225   2.3059E-04 -1.3561E-03  1.3756E-03  -80.350
    18    1   0.0000   0.0000  -0.0980  0.01225   2.3949E-04 -1.3795E-03  1.4002E-03  -80.152
    19    1   0.0000   0.0000  -0.0858  0.01225   2.4745E-04 -1.3944E-03  1.4162E-03  -79.937
    20    1   0.0000   0.0000  -0.0735  0.01225   2.5443E-04 -1.4006E-03  1.4235E-03  -79.704
    21    1   0.0000   0.0000  -0.0613  0.01225   2.6041E-04 -1.3979E-03  1.4220E-03  -79.448
    22    1   0.0000   0.0000  -0.0490  0.01225   2.6534E-04 -1.3863E-03  1.4115E-03  -79.165
    23    1   0.0000   0.0000  -0.0368  0.01225   2.6920E-04 -1.3657E-03  1.3919E-03  -78.849
    24    1   0.0000   0.0000  -0.0245  0.01225   2.7198E-04 -1.3356E-03  1.3631E-03  -78.490
    25    1   0.0000   0.0000  -0.0123  0.01225   2.7365E-04 -1.2955E-03  1.3241E-03  -78.073
    26    1   0.0000   0.0000   0.0000  0.01225   2.7420E-04 -1.2577E-03  1.2872E-03  -77.701
    27    1   0.0000   0.0000   0.0123  0.01225   2.7365E-04 -1.2955E-03  1.3241E-03  -78.073
    28    1   0.0000   0.0000   0.0245  0.01225   2.7198E-04 -1.3356E-03  1.3631E-03  -78.490
    29    1   0.0000   0.0000   0.0368  0.01225   2.6920E-04 -1.3657E-03  1.3919E-03  -78.849
    30    1   0.0000   0.0000   0.0490  0.01225   2.6534E-04 -1.3863E-03  1.4115E-03  -79.165
    31    1   0.0000   0.0000   0.0613  0.01225   2.6041E-04 -1.3979E-03  1.4220E-03  -79.448
    32    1   0.0000   0.0000   0.0735  0.01225   2.5443E-04 -1.4006E-03  1.4235E-03  -79.704
    33    1   0.0000   0.0000   0.0858  0.01225   2.4745E-04 -1.3944E-03  1.4162E-03  -79.937
    34    1   0.0000   0.0000   0.0980  0.01225   2.3949E-04 -1.3795E-03  1.4002E-03  -80.152
    35    1   0.0000   0.0000   0.1103  0.01225   2.3059E-04 -1.3561E-03  1.3756E-03  -80.350
    36    1   0.0000   0.0000   0.1225  0.01225   2.2081E-04 -1.3244E-03  1.3427E-03  -80.534
    37    1   0.0000   0.0000   0.1348  0.01225   2.1020E-04 -1.2845E-03  1.3016E-03  -80.706
    38    1   0.0000   0.0000   0.1471  0.01225   1.9880E-04 -1.2367E-03  1.2526E-03  -80.868
    39    1   0.0000   0.0000   0.1593  0.01225   1.8668E-04 -1.1813E-03  1.1959E-03  -81.020
    40    1   0.0000   0.0000   0.1716  0.01225   1.7390E-04 -1.1186E-03  1.1320E-03  -81.164
    41    1   0.0000   0.0000   0.1838  0.01225   1.6052E-04 -1.0490E-03  1.0612E-03  -81.300
    42    1   0.0000   0.0000   0.1961  0.01225   1.4661E-04 -9.7284E-04  9.8383E-04  -81.430
    43    1   0.0000   0.0000   0.2083  0.01225   1.3225E-04 -8.9060E-04  9.0036E-04  -81.554
    44    1   0.0000   0.0000   0.2206  0.01225   1.1749E-04 -8.0268E-04  8.1123E-04  -81.672
    45    1   0.0000   0.0000   0.2328  0.01225   1.0242E-04 -7.0955E-04  7.1690E-04  -81.786
    46    1   0.0000   0.0000   0.2451  0.01225   8.7097E-05 -6.1168E-04  6.1785E-04  -81.896
    47    1   0.0000   0.0000   0.2573  0.01225   7.1587E-05 -5.0951E-04  5.1452E-04  -82.002
    48    1   0.0000   0.0000   0.2696  0.01225   5.5951E-05 -4.0347E-04  4.0733E-04  -82.105
    49    1   0.0000   0.0000   0.2819  0.01225   4.0232E-05 -2.9388E-04  2.9662E-04  -82.205
    50    1   0.0000   0.0000   0.2941  0.01225   2.4435E-05 -1.8077E-04  1.8241E-04  -82.302
    51    1   0.0000   0.0000   0.3064  0.01225   8.3800E-06 -6.2773E-05  6.3330E-05  -82.396



                                        - - - POWER BUDGET - - -

                                           INPUT POWER   = 1.3710E-04 WATTS
                                           RADIATED POWER= 1.3710E-04 WATTS
                                           STRUCTURE LOSS= 0.0000E+00 WATTS
                                           NETWORK LOSS  = 0.0000E+00 WATTS
                                           EFFICIENCY    = 100.00 PERCENT



                                                - - - RADIATION PATTERNS - - -

  - - ANGLES - -           - POWER GAINS -       - - - POLARIZATION - - -    - - - E(THETA) - - -    - - - E(PHI) - - -
  THETA     PHI        VERT.   HOR.    TOTAL      AXIAL     TILT   SENSE     MAGNITUDE    PHASE      MAGNITUDE    PHASE 
 DEGREES  DEGREES       DB      DB      DB        RATIO     DEG.              VOLTS/M    DEGREES      VOLTS/M    DEGREES
 -180.00     0.00    -999.99 -999.99 -999.99    0.00000     0.00            7.92100E-13    10.29    0.00000E+00     0.00
 -178.00     0.00     -30.49 -999.99  -30.49    0.00000     0.00  LINEAR    2.70992E-03  -169.71    0.00000E+00     0.00
 -176.00     0.00     -24.46 -999.99  -24.46    0.00000     0.00  LINEAR    5.42579E-03  -169.71    0.00000E+00     0.00
 -174.00     0.00     -20.92 -999.99  -20.92    0.00000     0.00  LINEAR    8.15351E-03  -169.71    0.00000E+00     0.00
 -172.00     0.00     -18.40 -999.99  -18.40    0.00000     0.00  LINEAR    1.08988E-02  -169.72    0.00000E+00     0.00
 -170.00     0.00     -16.44 -999.99  -16.44    0.00000     0.00  LINEAR    1.36672E-02  -169.73    0.00000E+00     0.00
 -168.00     0.00     -14.82 -999.99  -14.82    0.00000     0.00  LINEAR    1.64638E-02  -169.74    0.00000E+00     0.00
 -166.00     0.00     -13.44 -999.99  -13.44    0.00000     0.00  LINEAR    1.92936E-02  -169.75    0.00000E+00     0.00
 -164.00     0.00     -12.24 -999.99  -12.24    0.00000     0.00  LINEAR    2.21608E-02  -169.76    0.00000E+00     0.00
 -162.00     0.00     -11.17 -999.99  -11.17    0.00000     0.00  LINEAR    2.50693E-02  -169.77    0.00000E+00     0.00
 -160.00     0.00     -10.20 -999.99  -10.20    0.00000     0.00  LINEAR    2.80224E-02  -169.79    0.00000E+00     0.00
 -158.00     0.00      -9.32 -999.99   -9.32    0.00000     0.00  LINEAR    3.10226E-02  -169.80    0.00000E+00     0.00
 -156.00     0.00      -8.50 -999.99   -8.50    0.00000     0.00  LINEAR    3.40717E-02  -169.82    0.00000E+00     0.00
 -154.00     0.00      -7.74 -999.99   -7.74    0.00000     0.00  LINEAR    3.71708E-02  -169.84    0.00000E+00     0.00
 -152.00     0.00      -7.04 -999.99   -7.04    0.00000     0.00  LINEAR    4.03199E-02  -169.85    0.00000E+00     0.00
 -150.00     0.00      -6.38 -999.99   -6.38    0.00000     0.00  LINEAR    4.35182E-02  -169.87    0.00000E+00     0.00
 -148.00     0.00      -5.75 -999.99   -5.75    0.00000     0.00  LINEAR    4.67640E-02  -169.89    0.00000E+00     0.00
 -146.00     0.00      -5.16 -999.99   -5.16    0.00000     0.00  LINEAR    5.00544E-02  -169.91    0.00000E+00     0.00
 -144.00     0.00      -4.60 -999.99   -4.60    0.00000     0.00  LINEAR    5.33853E-02  -169.93    0.00000E+00     0.00
 -142.00     0.00      -4.07 -999.99   -4.07    0.00000     0.00  LINEAR    5.67519E-02  -169.95    0.00000E+00     0.00
 -140.00     0.00      -3.56 -999.99   -3.56    0.00000     0.00  LINEAR    6.01480E-02  -169.97    0.00000E+00     0.00
 -138.00     0.00      -3.08 -999.99   -3.08    0.00000     0.00  LINEAR    6.35661E-02  -169.99    0.00000E+00     0.00
 -136.00     0.00      -2.63 -999.99   -2.63    0.00000     0.00  LINEAR    6.69980E-02  -170.01    0.00000E+00     0.00
 -134.00     0.00      -2.19 -999.99   -2.19    0.00000     0.00  LINEAR    7.04340E-02  -170.03    0.00000E+00     0.00
 -132.00     0.00      -1.78 -999.99   -1.78    0.00000     0.00  LINEAR    7.38636E-02  -170.05    0.00000E+00     0.00
 -130.00     0.00      -1.39 -999.99   -1.39    0.00000     0.00  LINEAR    7.72751E-02  -170.07    0.00000E+00     0.00
 -128.00     0.00      -1.02 -999.99   -1.02    0.00000     0.00  LINEAR    8.06560E-02  -170.08    0.00000E+00     0.00
 -126.00     0.00      -0.66 -999.99   -0.66    0.00000     0.00  LINEAR    8.39928E-02  -170.10    0.00000E+00     0.00
 -124.00     0.00      -0.33 -999.99   -0.33    0.00000     0.00  LINEAR    8.72714E-02  -170.12    0.00000E+00     0.00
 -122.00     0.00      -0.02 -999.99   -0.02    0.00000     0.00  LINEAR    9.04770E-02  -170.13    0.00000E+00     0.00
 -120.00     0.00       0.28 -999.99    0.28    0.00000     0.00  LINEAR    9.35942E-02  -170.15    0.00000E+00     0.00
 -118.00     0.00       0.55 -999.99    0.55    0.00000     0.00  LINEAR    9.66073E-02  -170.16    0.00000E+00     0.00
 -116.00     0.00       0.81 -999.99    0.81    0.00000     0.00  LINEAR    9.95007E-02  -170.18    0.00000E+00     0.00
 -114.00     0.00       1.05 -999.99    1.05    0.00000     0.00  LINEAR    1.02258E-01  -170.19    0.00000E+00     0.00
 -112.00     0.00       1.26 -999.99    1.26    0.00000     0.00  LINEAR    1.04864E-01  -170.20    0.00000E+00     0.00
 -110.00     0.00       1.46 -999.99    1.46    0.00000     0.00  LINEAR    1.07304E-01  -170.21    0.00000E+00     0.00
 -108.00     0.00       1.64 -999.99    1.64    0.00000     0.00  LINEAR    1.09562E-01  -170.22    0.00000E+00     0.00
 -106.00     0.00       1.81 -999.99    1.81    0.00000     0.00  LINEAR    1.11624E-01  -170.23    0.00000E+00     0.00
 -104.00     0.00       1.95 -999.99    1.95    0.00000     0.00  LINEAR    1.13477E-01  -170.24    0.00000E+00     0.00
 -102.00     0.00       2.07 -999.99    2.07    0.00000     0.00  LINEAR    1.15109E-01  -170.25    0.00000E+00     0.00
 -100.00     0.00       2.18 -999.99    2.18    0.00000     0.00  LINEAR    1.16510E-01  -170.25    0.00000E+00     0.00
  -98.00     0.00       2.26 -999.99    2.26    0.00000     0.00  LINEAR    1.17669E-01  -170.26    0.00000E+00     0.00
  -96.00     0.00       2.33 -999.99    2.33    0.00000     0.00  LINEAR    1.18579E-01  -170.26    0.00000E+00     0.00
  -94.00     0.00       2.38 -999.99    2.38    0.00000     0.00  LINEAR    1.19234E-01  -170.26    0.00000E+00     0.00
  -92.00     0.00       2.41 -999.99    2.41    0.00000     0.00  LINEAR    1.19628E-01  -170.26    0.00000E+00     0.00
  -90.00     0.00       2.42 -999.99    2.42    0.00000     0.00  LINEAR    1.19760E-01  -170.27    0.00000E+00     0.00
  -88.00     0.00       2.41 -999.99    2.41    0.00000     0.00  LINEAR    1.19628E-01  -170.26    0.00000E+00     0.00
  -86.00     0.00       2.38 -999.99    2.38    0.00000     0.00  LINEAR    1.19234E-01  -170.26    0.00000E+00     0.00
  -84.00     0.00       2.33 -999.99    2.33    0.00000     0.00  LINEAR    1.18579E-01  -170.26    0.00000E+00     0.00
  -82.00     0.00       2.26 -999.99    2.26    0.00000     0.00  LINEAR    1.17669E-01  -170.26    0.00000E+00     0.00
  -80.00     0.00       2.18 -999.99    2.18    0.00000     0.00  LINEAR    1.16510E-01  -170.25    0.00000E+00     0.00
  -78.00     0.00       2.07 -999.99    2.07    0.00000     0.00  LINEAR    1.15109E-01  -170.25    0.00000E+00     0.00
  -76.00     0.00       1.95 -999.99    1.95    0.00000     0.00  LINEAR    1.13477E-01  -170.24    0.00000E+00     0.00
  -74.00     0.00       1.81 -999.99    1.81    0.00000     0.00  LINEAR    1.11624E-01  -170.23    0.00000E+00     0.00
  -72.00     0.00       1.64 -999.99    1.64    0.00000     0.00  LINEAR    1.09562E-01  -170.22    0.00000E+00     0.00
  -70.00     0.00       1.46 -999.99    1.46    0.00000     0.00  LINEAR    1.07304E-01  -170.21    0.00000E+00     0.00
  -68.00     0.00       1.26 -999.99    1.26    0.00000     0.00  LINEAR    1.04864E-01  -170.20    0.00000E+00     0.00
  -66.00     0.00       1.05 -999.99    1.05    0.00000     0.00  LINEAR    1.02258E-01  -170.19    0.00000E+00     0.00
  -64.00     0.00       0.81 -999.99    0.81    0.00000     0.00  LINEAR    9.95007E-02  -170.18    0.00000E+00     0.00
  -62.00     0.00       0.55 -999.99    0.55    0.00000     0.00  LINEAR    9.66073E-02  -170.16    0.00000E+00     0.00
  -60.00     0.00       0.28 -999.99    0.28    0.00000     0.00  LINEAR    9.35942E-02  -170.15    0.00000E+00     0.00
  -58.00     0.00      -0.02 -999.99   -0.02    0.00000     0.00  LINEAR    9.04770E-02  -170.13    0.00000E+00     0.00
  -56.00     0.00      -0.33 -999.99   -0.33    0.00000     0.00  LINEAR    8.72714E-02  -170.12    0.00000E+00     0.00
  -54.00     0.00      -0.66 -999.99   -0.66    0.00000     0.00  LINEAR    8.39928E-02  -170.10    0.00000E+00     0.00
  -52.00     0.00      -1.02 -999.99   -1.02    0.00000     0.00  LINEAR    8.06560E-02  -170.08    0.00000E+00     0.00
  -50.00     0.00      -1.39 -999.99   -1.39    0.00000     0.00  LINEAR    7.72751E-02  -170.07    0.00000E+00     0.00
  -48.00     0.00      -1.78 -999.99   -1.78    0.00000     0.00  LINEAR    7.38636E-02  -170.05    0.00000E+00     0.00
  -46.00     0.00      -2.19 -999.99   -2.19    0.00000     0.00  LINEAR    7.04340E-02  -170.03    0.00000E+00     0.00
  -44.00     0.00      -2.63 -999.99   -2.63    0.00000     0.00  LINEAR    6.69980E-02  -170.01    0.00000E+00     0.00
  -42.00     0.00      -3.08 -999.99   -3.08    0.00000     0.00  LINEAR    6.35661E-02  -169.99    0.00000E+00     0.00
  -40.00     0.00      -3.56 -999.99   -3.56    0.00000     0.00  LINEAR    6.01480E-02  -169.97    0.00000E+00     0.00
  -38.00     0.00      -4.07 -999.99   -4.07    0.00000     0.00  LINEAR    5.67519E-02  -169.95    0.00000E+00     0.00
  -36.00     0.00      -4.60 -999.99   -4.60    0.00000     0.00  LINEAR    5.33853E-02  -169.93    0.00000E+00     0.00
  -34.00     0.00      -5.16 -999.99   -5.16    0.00000     0.00  LINEAR    5.00544E-02  -169.91    0.00000E+00     0.00
  -32.00     0.00      -5.75 -999.99   -5.75    0.00000     0.00  LINEAR    4.67640E-02  -169.89    0.00000E+00     0.00
  -30.00     0.00      -6.38 -999.99   -6.38    0.00000     0.00  LINEAR    4.35182E-02  -169.87    0.00000E+00     0.00
  -28.00     0.00      -7.04 -999.99   -7.04    0.00000     0.00  LINEAR    4.03199E-02  -169.85    0.00000E+00     0.00
  -26.00     0.00      -7.74 -999.99   -7.74    0.00000     0.00  LINEAR    3.71708E-02  -169.84    0.00000E+00     0.00
  -24.00     0.00      -8.50 -999.99   -8.50    0.00000     0.00  LINEAR    3.40717E-02  -169.82    0.00000E+00     0.00
  -22.00     0.00      -9.32 -999.99   -9.32    0.00000     0.00  LINEAR    3.10226E-02  -169.80    0.00000E+00     0.00
  -20.00     0.00     -10.20 -999.99  -10.20    0.00000     0.00  LINEAR    2.80224E-02  -169.79    0.00000E+00     0.00
  -18.00     0.00     -11.17 -999.99  -11.17    0.00000     0.00  LINEAR    2.50693E-02  -169.77    0.00000E+00     0.00
  -16.00     0.00     -12.24 -999.99  -12.24    0.00000     0.00  LINEAR    2.21608E-02  -169.76    0.00000E+00     0.00
  -14.00     0.00     -13.44 -999.99  -13.44    0.00000     0.00  LINEAR    1.92936E-02  -169.75    0.00000E+00     0.00
  -12.00     0.00     -14.82 -999.99  -14.82    0.00000     0.00  LINEAR    1.64638E-02  -169.74    0.00000E+00     0.00
  -10.00     0.00     -16.44 -999.99  -16.44    0.00000     0.00  LINEAR    1.36672E-02  -169.73    0.00000E+00     0.00
   -8.00     0.00     -18.40 -999.99  -18.40    0.00000     0.00  LINEAR    1.08988E-02  -169.72    0.00000E+00     0.00
   -6.00     0.00     -20.92 -999.99  -20.92    0.00000     0.00  LINEAR    8.15351E-03  -169.71    0.00000E+00     0.00
   -4.00     0.00     -24.46 -999.99  -24.46    0.00000     0.00  LINEAR    5.42579E-03  -169.71    0.00000E+00     0.00
   -2.00     0.00     -30.49 -999.99  -30.49    0.00000     0.00  LINEAR    2.70992E-03  -169.71    0.00000E+00     0.00
    0.00     0.00    -999.99 -999.99 -999.99    0.00000     0.00            0.00000E+00     0.00    0.00000E+00     0.00
    2.00     0.00     -30.49 -999.99  -30.49    0.00000     0.00  LINEAR    2.70992E-03    10.29    0.00000E+00     0.00
    4.00     0.00     -24.46 -999.99  -24.46    0.00000     0.00  LINEAR    5.42579E-03    10.29    0.00000E+00     0.00
    6.00     0.00     -20.92 -999.99  -20.92    0.00000     0.00  LINEAR    8.15351E-03    10.29    0.00000E+00     0.00
    8.00     0.00     -18.40 -999.99  -18.40    0.00000     0.00  LINEAR    1.08988E-02    10.28    0.00000E+00     0.00
   10.00     0.00     -16.44 -999.99  -16.44    0.00000     0.00  LINEAR    1.36672E-02    10.27    0.00000E+00     0.00
   12.00     0.00     -14.82 -999.99  -14.82    0.00000     0.00  LINEAR    1.64638E-02    10.26    0.00000E+00     0.00
   14.00     0.00     -13.44 -999.99  -13.44    0.00000     0.00  LINEAR    1.92936E-02    10.25    0.00000E+00     0.00
   16.00     0.00     -12.24 -999.99  -12.24    0.00000     0.00  LINEAR    2.21608E-02    10.24    0.00000E+00     0.00
   18.00     0.00     -11.17 -999.99  -11.17    0.00000     0.00  LINEAR    2.50693E-02    10.23    0.00000E+00     0.00
   20.00     0.00     -10.20 -999.99  -10.20    0.00000     0.00  LINEAR    2.80224E-02    10.21    0.00000E+00     0.00
   22.00     0.00      -9.32 -999.99   -9.32    0.00000     0.00  LINEAR    3.10226E-02    10.20    0.00000E+00     0.00
   24.00     0.00      -8.50 -999.99   -8.50    0.00000     0.00  LINEAR    3.40717E-02    10.18    0.00000E+00     0.00
   26.00     0.00      -7.74 -999.99   -7.74    0.00000     0.00  LINEAR    3.71708E-02    10.16    0.00000E+00     0.00
   28.00     0.00      -7.04 -999.99   -7.04    0.00000     0.00  LINEAR    4.03199E-02    10.15    0.00000E+00     0.00
   30.00     0.00      -6.38 -999.99   -6.38    0.00000     0.00  LINEAR    4.35182E-02    10.13    0.00000E+00     0.00
   32.00     0.00      -5.75 -999.99   -5.75    0.00000     0.00  LINEAR    4.67640E-02    10.11    0.00000E+00     0.00
   34.00     0.00      -5.16 -999.99   -5.16    0.00000     0.00  LINEAR    5.00544E-02    10.09    0.00000E+00     0.00
   36.00     0.00      -4.60 -999.99   -4.60    0.00000     0.00  LINEAR    5.33853E-02    10.07    0.00000E+00     0.00
   38.00     0.00      -4.07 -999.99   -4.07    0.00000     0.00  LINEAR    5.67519E-02    10.05    0.00000E+00     0.00
   40.00     0.00      -3.56 -999.99   -3.56    0.00000     0.00  LINEAR    6.01480E-02    10.03    0.00000E+00     0.00
   42.00     0.00      -3.08 -999.99   -3.08    0.00000     0.00  LINEAR    6.35661E-02    10.01    0.00000E+00     0.00
   44.00     0.00      -2.63 -999.99   -2.63    0.00000     0.00  LINEAR    6.69980E-02     9.99    0.00000E+00     0.00
   46.00     0.00      -2.19 -999.99   -2.19    0.00000     0.00  LINEAR    7.04340E-02     9.97    0.00000E+00     0.00
   48.00     0.00      -1.78 -999.99   -1.78    0.00000     0.00  LINEAR    7.38636E-02     9.95    0.00000E+00     0.00
   50.00     0.00      -1.39 -999.99   -1.39    0.00000     0.00  LINEAR    7.72751E-02     9.93    0.00000E+00     0.00
   52.00     0.00      -1.02 -999.99   -1.02    0.00000     0.00  LINEAR    8.06560E-02     9.92    0.00000E+00     0.00
   54.00     0.00      -0.66 -999.99   -0.66    0.00000     0.00  LINEAR    8.39928E-02     9.90    0.00000E+00     0.00
   56.00     0.00      -0.33 -999.99   -0.33    0.00000     0.00  LINEAR    8.72714E-02     9.88    0.00000E+00     0.00
   58.00     0.00      -0.02 -999.99   -0.02    0.00000     0.00  LINEAR    9.04770E-02     9.87    0.00000E+00     0.00
   60.00     0.00       0.28 -999.99    0.28    0.00000     0.00  LINEAR    9.35942E-02     9.85    0.00000E+00     0.00
   62.00     0.00       0.55 -999.99    0.55    0.00000     0.00  LINEAR    9.66073E-02     9.84    0.00000E+00     0.00
   64.00     0.00       0.81 -999.99    0.81    0.00000     0.00  LINEAR    9.95007E-02     9.82    0.00000E+00     0.00
   66.00     0.00       1.05 -999.99    1.05    0.00000     0.00  LINEAR    1.02258E-01     9.81    0.00000E+00     0.00
   68.00     0.00       1.26 -999.99    1.26    0.00000     0.00  LINEAR    1.04864E-01     9.80    0.00000E+00     0.00
   70.00     0.00       1.46 -999.99    1.46    0.00000     0.00  LINEAR    1.07304E-01     9.79    0.00000E+00     0.00
   72.00     0.00       1.64 -999.99    1.64    0.00000     0.00  LINEAR    1.09562E-01     9.78    0.00000E+00     0.00
   74.00     0.00       1.81 -999.99    1.81    0.00000     0.00  LINEAR    1.11624E-01     9.77    0.00000E+00     0.00
   76.00     0.00       1.95 -999.99    1.95    0.00000     0.00  LINEAR    1.13477E-01     9.76    0.00000E+00     0.00
   78.00     0.00       2.07 -999.99    2.07    0.00000     0.00  LINEAR    1.15109E-01     9.75    0.00000E+00     0.00
   80.00     0.00       2.18 -999.99    2.18    0.00000     0.00  LINEAR    1.16510E-01     9.75    0.00000E+00     0.00
   82.00     0.00       2.26 -999.99    2.26    0.00000     0.00  LINEAR    1.17669E-01     9.74    0.00000E+00     0.00
   84.00     0.00       2.33 -999.99    2.33    0.00000     0.00  LINEAR    1.18579E-01     9.74    0.00000E+00     0.00
   86.00     0.00       2.38 -999.99    2.38    0.00000     0.00  LINEAR    1.19234E-01     9.74    0.00000E+00     0.00
   88.00     0.00       2.41 -999.99    2.41    0.00000     0.00  LINEAR    1.19628E-01     9.74    0.00000E+00     0.00
   90.00     0.00       2.42 -999.99    2.42    0.00000     0.00  LINEAR    1.19760E-01     9.73    0.00000E+00     0.00
   92.00     0.00       2.41 -999.99    2.41    0.00000     0.00  LINEAR    1.19628E-01     9.74    0.00000E+00     0.00
   94.00     0.00       2.38 -999.99    2.38    0.00000     0.00  LINEAR    1.19234E-01     9.74    0.00000E+00     0.00
   96.00     0.00       2.33 -999.99    2.33    0.00000     0.00  LINEAR    1.18579E-01     9.74    0.00000E+00     0.00
   98.00     0.00       2.26 -999.99    2.26    0.00000     0.00  LINEAR    1.17669E-01     9.74    0.00000E+00     0.00
  100.00     0.00       2.18 -999.99    2.18    0.00000     0.00  LINEAR    1.16510E-01     9.75    0.00000E+00     0.00
  102.00     0.00       2.07 -999.99    2.07    0.00000     0.00  LINEAR    1.15109E-01     9.75    0.00000E+00     0.00
  104.00     0.00       1.95 -999.99    1.95    0.00000     0.00  LINEAR    1.13477E-01     9.76    0.00000E+00     0.00
  106.00     0.00       1.81 -999.99    1.81    0.00000     0.00  LINEAR    1.11624E-01     9.77    0.00000E+00     0.00
  108.00     0.00       1.64 -999.99    1.64    0.00000     0.00  LINEAR    1.09562E-01     9.78    0.00000E+00     0.00
  110.00     0.00       1.46 -999.99    1.46    0.00000     0.00  LINEAR    1.07304E-01     9.79    0.00000E+00     0.00
  112.00     0.00       1.26 -999.99    1.26    0.00000     0.00  LINEAR    1.04864E-01     9.80    0.00000E+00     0.00
  114.00     0.00       1.05 -999.99    1.05    0.00000     0.00  LINEAR    1.02258E-01     9.81    0.00000E+00     0.00
  116.00     0.00       0.81 -999.99    0.81    0.00000     0.00  LINEAR    9.95007E-02     9.82    0.00000E+00     0.00
  118.00     0.00       0.55 -999.99    0.55    0.00000     0.00  LINEAR    9.66073E-02     9.84    0.00000E+00     0.00
  120.00     0.00       0.28 -999.99    0.28    0.00000     0.00  LINEAR    9.35942E-02     9.85    0.00000E+00     0.00
  122.00     0.00      -0.02 -999.99   -0.02    0.00000     0.00  LINEAR    9.04770E-02     9.87    0.00000E+00     0.00
  124.00     0.00      -0.33 -999.99   -0.33    0.00000     0.00  LINEAR    8.72714E-02     9.88    0.00000E+00     0.00
  126.00     0.00      -0.66 -999.99   -0.66    0.00000     0.00  LINEAR    8.39928E-02     9.90    0.00000E+00     0.00
  128.00     0.00      -1.02 -999.99   -1.02    0.00000     0.00  LINEAR    8.06560E-02     9.92    0.00000E+00     0.00
  130.00     0.00      -1.39 -999.99   -1.39    0.00000     0.00  LINEAR    7.72751E-02     9.93    0.00000E+00     0.00
  132.00     0.00      -1.78 -999.99   -1.78    0.00000     0.00  LINEAR    7.38636E-02     9.95    0.00000E+00     0.00
  134.00     0.00      -2.19 -999.99   -2.19    0.00000     0.00  LINEAR    7.04340E-02     9.97    0.00000E+00     0.00
  136.00     0.00      -2.63 -999.99   -2.63    0.00000     0.00  LINEAR    6.69980E-02     9.99    0.00000E+00     0.00
  138.00     0.00      -3.08 -999.99   -3.08    0.00000     0.00  LINEAR    6.35661E-02    10.01    0.00000E+00     0.00
  140.00     0.00      -3.56 -999.99   -3.56    0.00000     0.00  LINEAR    6.01480E-02    10.03    0.00000E+00     0.00
  142.00     0.00      -4.07 -999.99   -4.07    0.00000     0.00  LINEAR    5.67519E-02    10.05    0.00000E+00     0.00
  144.00     0.00      -4.60 -999.99   -4.60    0.00000     0.00  LINEAR    5.33853E-02    10.07    0.00000E+00     0.00
  146.00     0.00      -5.16 -999.99   -5.16    0.00000     0.00  LINEAR    5.00544E-02    10.09    0.00000E+00     0.00
  148.00     0.00      -5.75 -999.99   -5.75    0.00000     0.00  LINEAR    4.67640E-02    10.11    0.00000E+00     0.00
  150.00     0.00      -6.38 -999.99   -6.38    0.00000     0.00  LINEAR    4.35182E-02    10.13    0.00000E+00     0.00
  152.00     0.00      -7.04 -999.99   -7.04    0.00000     0.00  LINEAR    4.03199E-02    10.15    0.00000E+00     0.00
  154.00     0.00      -7.74 -999.99   -7.74    0.00000     0.00  LINEAR    3.71708E-02    10.16    0.00000E+00     0.00
  156.00     0.00      -8.50 -999.99   -8.50    0.00000     0.00  LINEAR    3.40717E-02    10.18    0.00000E+00     0.00
  158.00     0.00      -9.32 -999.99   -9.32    0.00000     0.00  LINEAR    3.10226E-02    10.20    0.00000E+00     0.00
  160.00     0.00     -10.20 -999.99  -10.20    0.00000     0.00  LINEAR    2.80224E-02    10.21    0.00000E+00     0.00
  162.00     0.00     -11.17 -999.99  -11.17    0.00000     0.00  LINEAR    2.50693E-02    10.23    0.00000E+00     0.00
  164.00     0.00     -12.24 -999.99  -12.24    0.00000     0.00  LINEAR    2.21608E-02    10.24    0.00000E+00     0.00
  166.00     0.00     -13.44 -999.99  -13.44    0.00000     0.00  LINEAR    1.92936E-02    10.25    0.00000E+00     0.00
  168.00     0.00     -14.82 -999.99  -14.82    0.00000     0.00  LINEAR    1.64638E-02    10.26    0.00000E+00     0.00
  170.00     0.00     -16.44 -999.99  -16.44    0.00000     0.00  LINEAR    1.36672E-02    10.27    0.00000E+00     0.00
  172.00     0.00     -18.40 -999.99  -18.40    0.00000     0.00  LINEAR    1.08988E-02    10.28    0.00000E+00     0.00
  174.00     0.00     -20.92 -999.99  -20.92    0.00000     0.00  LINEAR    8.15351E-03    10.29    0.00000E+00     0.00
  176.00     0.00     -24.46 -999.99  -24.46    0.00000     0.00  LINEAR    5.42579E-03    10.29    0.00000E+00     0.00
  178.00     0.00     -30.49 -999.99  -30.49    0.00000     0.00  LINEAR    2.70992E-03    10.29    0.00000E+00     0.00
  180.00     0.00    -999.99 -999.99 -999.99    0.00000     0.00            7.92100E-13  -169.71    0.00000E+00     0.00




                                 - - - - - - FREQUENCY - - - - - -

                                    FREQUENCY= 1.2900E+03 MHZ
                                    WAVELENGTH= 2.3240E-01 METERS




                    APPROXIMATE INTEGRATION EMPLOYED FOR SEGMENTS MORE THAN   1.000 WAVELENGTHS APART

                    THE EXTENDED THIN WIRE KERNEL WILL BE USED



                               - - - STRUCTURE IMPEDANCE LOADING - - -

                                   THIS STRUCTURE IS NOT LOADED



                                  - - - ANTENNA ENVIRONMENT - - -

                                            FREE SPACE



                                - - - MATRIX TIMING - - -

                        FILL=    0.000 SEC.,  FACTOR=    0.000 SEC.



                                          - - - ANTENNA INPUT PARAMETERS - - -

   TAG   SEG.    VOLTAGE (VOLTS)         CURRENT (AMPS)         IMPEDANCE (OHMS)        ADMITTANCE (MHOS)      POWER
   NO.   NO.    REAL        IMAG.       REAL        IMAG.       REAL        IMAG.       REAL        IMAG.     (WATTS)
     1    26 1.00000E+00 0.00000E+00 1.23856E-04-5.31956E-04 4.15181E+02 1.78319E+03 1.23856E-04-5.31956E-04 6.19279E-05



                             - - - CURRENTS AND LOCATION - - -

                                 DISTANCES IN WAVELENGTHS


  SEG.  TAG    COORD. OF SEG. CENTER     SEG.            - - - CURRENT (AMPS) - - -
  NO.   NO.     X        Y        Z      LENGTH     REAL        IMAG.       MAG.        PHASE
     1    1   0.0000   0.0000  -0.3676  0.01471   3.2264E-06 -4.3008E-05  4.3129E-05  -85.710
     2    1   0.0000   0.0000  -0.3529  0.01471   9.5408E-06 -1.2378E-04  1.2414E-04  -85.592
     3    1   0.0000   0.0000  -0.3382  0.01471   1.5918E-05 -2.0092E-04  2.0155E-04  -85.470
     4    1   0.0000   0.0000  -0.3235  0.01471   2.2414E-05 -2.7519E-04  2.7610E-04  -85.344
     5    1   0.0000   0.0000  -0.3088  0.01471   2.9013E-05 -3.4636E-04  3.4757E-04  -85.212
     6    1   0.0000   0.0000  -0.2941  0.01471   3.5685E-05 -4.1404E-04  4.1558E-04  -85.074
     7    1   0.0000   0.0000  -0.2794  0.01471   4.2393E-05 -4.7779E-04  4.7966E-04  -84.930
     8    1   0.0000   0.0000  -0.2647  0.01471   4.9096E-05 -5.3714E-04  5.3937E-04  -84.777
     9    1   0.0000   0.0000  -0.2500  0.01471   5.5754E-05 -5.9164E-04  5.9426E-04  -84.617
    10    1   0.0000   0.0000  -0.2353  0.01471   6.2322E-05 -6.4087E-04  6.4389E-04  -84.446
    11    1   0.0000   0.0000  -0.2206  0.01471   6.8758E-05 -6.8443E-04  6.8788E-04  -84.263
    12    1   0.0000   0.0000  -0.2059  0.01471   7.5017E-05 -7.2198E-04  7.2587E-04  -84.068
    13    1   0.0000   0.0000  -0.1912  0.01471   8.1058E-05 -7.5319E-04  7.5754E-04  -83.857
    14    1   0.0000   0.0000  -0.1765  0.01471   8.6840E-05 -7.7779E-04  7.8262E-04  -83.629
    15    1   0.0000   0.0000  -0.1618  0.01471   9.2321E-05 -7.9557E-04  8.0091E-04  -83.381
    16    1   0.0000   0.0000  -0.1471  0.01471   9.7465E-05 -8.0635E-04  8.1221E-04  -83.108
    17    1   0.0000   0.0000  -0.1323  0.01471   1.0224E-04 -8.1000E-04  8.1643E-04  -82.806
    18    1   0.0000   0.0000  -0.1176  0.01471   1.0660E-04 -8.0647E-04  8.1348E-04  -82.470
    19    1   0.0000   0.0000  -0.1029  0.01471   1.1053E-04 -7.9570E-04  8.0334E-04  -82.092
    20    1   0.0000   0.0000  -0.0882  0.01471   1.1399E-04 -7.7772E-04  7.8603E-04  -81.662
    21    1   0.0000   0.0000  -0.0735  0.01471   1.1696E-04 -7.5257E-04  7.6160E-04  -81.166
    22    1   0.0000   0.0000  -0.0588  0.01471   1.1942E-04 -7.2028E-04  7.3011E-04  -80.586
    23    1   0.0000   0.0000  -0.0441  0.01471   1.2135E-04 -6.8088E-04  6.9161E-04  -79.895
    24    1   0.0000   0.0000  -0.0294  0.01471   1.2274E-04 -6.3423E-04  6.4599E-04  -79.047
    25    1   0.0000   0.0000  -0.0147  0.01471   1.2358E-04 -5.7950E-04  5.9253E-04  -77.962
    26    1   0.0000   0.0000   0.0000  0.01471   1.2386E-04 -5.3196E-04  5.4618E-04  -76.893
    27    1   0.0000   0.0000   0.0147  0.01471   1.2358E-04 -5.7950E-04  5.9253E-04  -77.962
    28    1   0.0000   0.0000   0.0294  0.01471   1.2274E-04 -6.3423E-04  6.4599E-04  -79.047
    29    1   0.0000   0.0000   0.0441  0.01471   1.2135E-04 -6.8088E-04  6.9161E-04  -79.895
    30    1   0.0000   0.0000   0.0588  0.01471   1.1942E-04 -7.2028E-04  7.3011E-04  -80.586
    31    1   0.0000   0.0000   0.0735  0.01471   1.1696E-04 -7.5257E-04  7.6160E-04  -81.166
    32    1   0.0000   0.0000   0.0882  0.01471   1.1399E-04 -7.7772E-04  7.8603E-04  -81.662
    33    1   0.0000   0.0000   0.1029  0.01471   1.1053E-04 -7.9570E-04  8.0334E-04  -82.092
    34    1   0.0000   0.0000   0.1176  0.01471   1.0660E-04 -8.0647E-04  8.1348E-04  -82.470
    35    1   0.0000   0.0000   0.1323  0.01471   1.0224E-04 -8.1000E-04  8.1643E-04  -82.806
    36    1   0.0000   0.0000   0.1471  0.01471   9.7465E-05 -8.0635E-04  8.1221E-04  -83.108
    37    1   0.0000   0.0000   0.1618  0.01471   9.2321E-05 -7.9557E-04  8.0091E-04  -83.381
    38    1   0.0000   0.0000   0.1765  0.01471   8.6840E-05 -7.7779E-04  7.8262E-04  -83.629
    39    1   0.0000   0.0000   0.1912  0.01471   8.1058E-05 -7.5319E-04  7.5754E-04  -83.857
    40    1   0.0000   0.0000   0.2059  0.01471   7.5017E-05 -7.2198E-04  7.2587E-04  -84.068
    41    1   0.0000   0.0000   0.2206  0.01471   6.8758E-05 -6.8443E-04  6.8788E-04  -84.263
    42    1   0.0000   0.0000   0.2353  0.01471   6.2322E-05 -6.4087E-04  6.4389E-04  -84.446
    43    1   0.0000   0.0000   0.2500  0.01471   5.5754E-05 -5.9164E-04  5.9426E-04  -84.617
    44    1   0.0000   0.0000   0.2647  0.01471   4.9096E-05 -5.3714E-04  5.3937E-04  -84.777
    45    1   0.0000   0.0000   0.2794  0.01471   4.2393E-05 -4.7779E-04  4.7966E-04  -84.930
    46    1   0.0000   0.0000   0.2941  0.01471   3.5685E-05 -4.1404E-04  4.1558E-04  -85.074
    47    1   0.0000   0.0000   0.3088  0.01471   2.9013E-05 -3.4636E-04  3.4757E-04  -85.212
    48    1   0.0000   0.0000   0.3235  0.01471   2.2414E-05 -2.7519E-04  2.7610E-04  -85.344
    49    1   0.0000   0.0000   0.3382  0.01471   1.5918E-05 -2.0092E-04  2.0155E-04  -85.470
    50    1   0.0000   0.0000   0.3529  0.01471   9.5408E-06 -1.2378E-04  1.2414E-04  -85.592
    51    1   0.0000   0.0000   0.3676  0.01471   3.2264E-06 -4.3008E-05  4.3129E-05  -85.710



                                        - - - POWER BUDGET - - -

                                           INPUT POWER   = 6.1928E-05 WATTS
                                           RADIATED POWER= 6.1928E-05 WATTS
                                           STRUCTURE LOSS= 0.0000E+00 WATTS
[...]
 -146.00     0.00      -4.25 -999.99   -4.25    0.00000     0.00  LINEAR    3.36153E-02  -168.88    0.00000E+00     0.00
 -144.00     0.00      -2.92 -999.99   -2.92    0.00000     0.00  LINEAR    3.91558E-02  -169.75    0.00000E+00     0.00
 -142.00     0.00      -1.72 -999.99   -1.72    0.00000     0.00  LINEAR    4.49709E-02  -170.47    0.00000E+00     0.00
 -140.00     0.00      -0.63 -999.99   -0.63    0.00000     0.00  LINEAR    5.09556E-02  -171.08    0.00000E+00     0.00
 -138.00     0.00       0.34 -999.99    0.34    0.00000     0.00  LINEAR    5.69841E-02  -171.60    0.00000E+00     0.00
 -136.00     0.00       1.20 -999.99    1.20    0.00000     0.00  LINEAR    6.29106E-02  -172.04    0.00000E+00     0.00
 -134.00     0.00       1.95 -999.99    1.95    0.00000     0.00  LINEAR    6.85731E-02  -172.42    0.00000E+00     0.00
 -132.00     0.00       2.58 -999.99    2.58    0.00000     0.00  LINEAR    7.37967E-02  -172.74    0.00000E+00     0.00
 -130.00     0.00       3.11 -999.99    3.11    0.00000     0.00  LINEAR    7.84003E-02  -173.02    0.00000E+00     0.00
 -128.00     0.00       3.52 -999.99    3.52    0.00000     0.00  LINEAR    8.22033E-02  -173.26    0.00000E+00     0.00
 -126.00     0.00       3.82 -999.99    3.82    0.00000     0.00  LINEAR    8.50339E-02  -173.47    0.00000E+00     0.00
 -124.00     0.00       3.99 -999.99    3.99    0.00000     0.00  LINEAR    8.67384E-02  -173.65    0.00000E+00     0.00
 -122.00     0.00       4.03 -999.99    4.03    0.00000     0.00  LINEAR    8.71906E-02  -173.79    0.00000E+00     0.00
 -120.00     0.00       3.94 -999.99    3.94    0.00000     0.00  LINEAR    8.63015E-02  -173.91    0.00000E+00     0.00
 -118.00     0.00       3.71 -999.99    3.71    0.00000     0.00  LINEAR    8.40274E-02  -174.01    0.00000E+00     0.00
 -116.00     0.00       3.33 -999.99    3.33    0.00000     0.00  LINEAR    8.03776E-02  -174.08    0.00000E+00     0.00
 -114.00     0.00       2.77 -999.99    2.77    0.00000     0.00  LINEAR    7.54191E-02  -174.12    0.00000E+00     0.00
 -112.00     0.00       2.04 -999.99    2.04    0.00000     0.00  LINEAR    6.92788E-02  -174.12    0.00000E+00     0.00
 -110.00     0.00       1.09 -999.99    1.09    0.00000     0.00  LINEAR    6.21428E-02  -174.09    0.00000E+00     0.00
 -108.00     0.00      -0.09 -999.99   -0.09    0.00000     0.00  LINEAR    5.42515E-02  -174.01    0.00000E+00     0.00
 -106.00     0.00      -1.54 -999.99   -1.54    0.00000     0.00  LINEAR    4.58921E-02  -173.86    0.00000E+00     0.00
 -104.00     0.00      -3.32 -999.99   -3.32    0.00000     0.00  LINEAR    3.73870E-02  -173.60    0.00000E+00     0.00
 -102.00     0.00      -5.51 -999.99   -5.51    0.00000     0.00  LINEAR    2.90797E-02  -173.16    0.00000E+00     0.00
 -100.00     0.00      -8.20 -999.99   -8.20    0.00000     0.00  LINEAR    2.13184E-02  -172.42    0.00000E+00     0.00
  -98.00     0.00     -11.59 -999.99  -11.59    0.00000     0.00  LINEAR    1.44401E-02  -171.06    0.00000E+00     0.00
  -96.00     0.00     -15.93 -999.99  -15.93    0.00000     0.00  LINEAR    8.75527E-03  -168.28    0.00000E+00     0.00
  -94.00     0.00     -21.63 -999.99  -21.63    0.00000     0.00  LINEAR    4.54316E-03  -161.63    0.00000E+00     0.00
  -92.00     0.00     -28.45 -999.99  -28.45    0.00000     0.00  LINEAR    2.07086E-03  -143.95    0.00000E+00     0.00
  -90.00     0.00     -31.93 -999.99  -31.93    0.00000     0.00  LINEAR    1.38768E-03  -124.28    0.00000E+00     0.00
  -88.00     0.00     -28.45 -999.99  -28.45    0.00000     0.00  LINEAR    2.07086E-03  -143.95    0.00000E+00     0.00
  -86.00     0.00     -21.63 -999.99  -21.63    0.00000     0.00  LINEAR    4.54316E-03  -161.63    0.00000E+00     0.00
  -84.00     0.00     -15.93 -999.99  -15.93    0.00000     0.00  LINEAR    8.75527E-03  -168.28    0.00000E+00     0.00
  -82.00     0.00     -11.59 -999.99  -11.59    0.00000     0.00  LINEAR    1.44400E-02  -171.06    0.00000E+00     0.00
  -80.00     0.00      -8.20 -999.99   -8.20    0.00000     0.00  LINEAR    2.13184E-02  -172.42    0.00000E+00     0.00
  -78.00     0.00      -5.51 -999.99   -5.51    0.00000     0.00  LINEAR    2.90796E-02  -173.16    0.00000E+00     0.00
  -76.00     0.00      -3.32 -999.99   -3.32    0.00000     0.00  LINEAR    3.73870E-02  -173.60    0.00000E+00     0.00
  -74.00     0.00      -1.54 -999.99   -1.54    0.00000     0.00  LINEAR    4.58921E-02  -173.86    0.00000E+00     0.00
  -72.00     0.00      -0.09 -999.99   -0.09    0.00000     0.00  LINEAR    5.42515E-02  -174.01    0.00000E+00     0.00
  -70.00     0.00       1.09 -999.99    1.09    0.00000     0.00  LINEAR    6.21428E-02  -174.09    0.00000E+00     0.00
  -68.00     0.00       2.04 -999.99    2.04    0.00000     0.00  LINEAR    6.92788E-02  -174.12    0.00000E+00     0.00
  -66.00     0.00       2.77 -999.99    2.77    0.00000     0.00  LINEAR    7.54191E-02  -174.12    0.00000E+00     0.00
  -64.00     0.00       3.33 -999.99    3.33    0.00000     0.00  LINEAR    8.03776E-02  -174.08    0.00000E+00     0.00
  -62.00     0.00       3.71 -999.99    3.71    0.00000     0.00  LINEAR    8.40274E-02  -174.01    0.00000E+00     0.00
  -60.00     0.00       3.94 -999.99    3.94    0.00000     0.00  LINEAR    8.63015E-02  -173.91    0.00000E+00     0.00
  -58.00     0.00       4.03 -999.99    4.03    0.00000     0.00  LINEAR    8.71906E-02  -173.79    0.00000E+00     0.00
  -56.00     0.00       3.99 -999.99    3.99    0.00000     0.00  LINEAR    8.67384E-02  -173.65    0.00000E+00     0.00
  -54.00     0.00       3.82 -999.99    3.82    0.00000     0.00  LINEAR    8.50339E-02  -173.47    0.00000E+00     0.00
  -52.00     0.00       3.52 -999.99    3.52    0.00000     0.00  LINEAR    8.22033E-02  -173.26    0.00000E+00     0.00
  -50.00     0.00       3.11 -999.99    3.11    0.00000     0.00  LINEAR    7.84003E-02  -173.02    0.00000E+00     0.00
  -48.00     0.00       2.58 -999.99    2.58    0.00000     0.00  LINEAR    7.37967E-02  -172.74    0.00000E+00     0.00
  -46.00     0.00       1.95 -999.99    1.95    0.00000     0.00  LINEAR    6.85731E-02  -172.42    0.00000E+00     0.00
  -44.00     0.00       1.20 -999.99    1.20    0.00000     0.00  LINEAR    6.29107E-02  -172.04    0.00000E+00     0.00
  -42.00     0.00       0.34 -999.99    0.34    0.00000     0.00  LINEAR    5.69841E-02  -171.60    0.00000E+00     0.00
  -40.00     0.00      -0.63 -999.99   -0.63    0.00000     0.00  LINEAR    5.09556E-02  -171.08    0.00000E+00     0.00
  -38.00     0.00      -1.72 -999.99   -1.72    0.00000     0.00  LINEAR    4.49709E-02  -170.47    0.00000E+00     0.00
  -36.00     0.00      -2.92 -999.99   -2.92    0.00000     0.00  LINEAR    3.91558E-02  -169.75    0.00000E+00     0.00
  -34.00     0.00      -4.25 -999.99   -4.25    0.00000     0.00  LINEAR    3.36153E-02  -168.88    0.00000E+00     0.00
  -32.00     0.00      -5.70 -999.99   -5.70    0.00000     0.00  LINEAR    2.84327E-02  -167.83    0.00000E+00     0.00
  -30.00     0.00      -7.29 -999.99   -7.29    0.00000     0.00  LINEAR    2.36702E-02  -166.54    0.00000E+00     0.00
  -28.00     0.00      -9.03 -999.99   -9.03    0.00000     0.00  LINEAR    1.93705E-02  -164.95    0.00000E+00     0.00
  -26.00     0.00     -10.94 -999.99  -10.94    0.00000     0.00  LINEAR    1.55586E-02  -162.94    0.00000E+00     0.00
  -24.00     0.00     -13.02 -999.99  -13.02    0.00000     0.00  LINEAR    1.22441E-02  -160.36    0.00000E+00     0.00
  -22.00     0.00     -15.29 -999.99  -15.29    0.00000     0.00  LINEAR    9.42346E-03  -156.99    0.00000E+00     0.00
  -20.00     0.00     -17.77 -999.99  -17.77    0.00000     0.00  LINEAR    7.08296E-03  -152.50    0.00000E+00     0.00
  -18.00     0.00     -20.46 -999.99  -20.46    0.00000     0.00  LINEAR    5.20060E-03  -146.41    0.00000E+00     0.00
  -16.00     0.00     -23.30 -999.99  -23.30    0.00000     0.00  LINEAR    3.74757E-03  -138.11    0.00000E+00     0.00
  -14.00     0.00     -26.19 -999.99  -26.19    0.00000     0.00  LINEAR    2.68648E-03  -126.99    0.00000E+00     0.00
  -12.00     0.00     -28.92 -999.99  -28.92    0.00000     0.00  LINEAR    1.96335E-03  -113.11    0.00000E+00     0.00
  -10.00     0.00     -31.28 -999.99  -31.28    0.00000     0.00  LINEAR    1.49527E-03   -97.98    0.00000E+00     0.00
   -8.00     0.00     -33.38 -999.99  -33.38    0.00000     0.00  LINEAR    1.17467E-03   -84.19    0.00000E+00     0.00
   -6.00     0.00     -35.65 -999.99  -35.65    0.00000     0.00  LINEAR    9.03855E-04   -73.59    0.00000E+00     0.00
   -4.00     0.00     -38.85 -999.99  -38.85    0.00000     0.00  LINEAR    6.25360E-04   -66.50    0.00000E+00     0.00
   -2.00     0.00     -44.63 -999.99  -44.63    0.00000     0.00  LINEAR    3.21667E-04   -62.52    0.00000E+00     0.00
    0.00     0.00    -999.99 -999.99 -999.99    0.00000     0.00            0.00000E+00     0.00    0.00000E+00     0.00
    2.00     0.00     -44.63 -999.99  -44.63    0.00000     0.00  LINEAR    3.21667E-04   117.48    0.00000E+00     0.00
    4.00     0.00     -38.85 -999.99  -38.85    0.00000     0.00  LINEAR    6.25360E-04   113.50    0.00000E+00     0.00
    6.00     0.00     -35.65 -999.99  -35.65    0.00000     0.00  LINEAR    9.03855E-04   106.41    0.00000E+00     0.00
    8.00     0.00     -33.38 -999.99  -33.38    0.00000     0.00  LINEAR    1.17467E-03    95.81    0.00000E+00     0.00
   10.00     0.00     -31.28 -999.99  -31.28    0.00000     0.00  LINEAR    1.49527E-03    82.02    0.00000E+00     0.00
   12.00     0.00     -28.92 -999.99  -28.92    0.00000     0.00  LINEAR    1.96335E-03    66.89    0.00000E+00     0.00
   14.00     0.00     -26.19 -999.99  -26.19    0.00000     0.00  LINEAR    2.68648E-03    53.01    0.00000E+00     0.00
   16.00     0.00     -23.30 -999.99  -23.30    0.00000     0.00  LINEAR    3.74757E-03    41.89    0.00000E+00     0.00
   18.00     0.00     -20.46 -999.99  -20.46    0.00000     0.00  LINEAR    5.20060E-03    33.59    0.00000E+00     0.00
   20.00     0.00     -17.77 -999.99  -17.77    0.00000     0.00  LINEAR    7.08296E-03    27.50    0.00000E+00     0.00
   22.00     0.00     -15.29 -999.99  -15.29    0.00000     0.00  LINEAR    9.42346E-03    23.01    0.00000E+00     0.00
   24.00     0.00     -13.02 -999.99  -13.02    0.00000     0.00  LINEAR    1.22441E-02    19.64    0.00000E+00     0.00
   26.00     0.00     -10.94 -999.99  -10.94    0.00000     0.00  LINEAR    1.55586E-02    17.06    0.00000E+00     0.00
   28.00     0.00      -9.03 -999.99   -9.03    0.00000     0.00  LINEAR    1.93705E-02    15.05    0.00000E+00     0.00
   30.00     0.00      -7.29 -999.99   -7.29    0.00000     0.00  LINEAR    2.36702E-02    13.46    0.00000E+00     0.00
   32.00     0.00      -5.70 -999.99   -5.70    0.00000     0.00  LINEAR    2.84327E-02    12.17    0.00000E+00     0.00
   34.00     0.00      -4.25 -999.99   -4.25    0.00000     0.00  LINEAR    3.36153E-02    11.12    0.00000E+00     0.00
   36.00     0.00      -2.92 -999.99   -2.92    0.00000     0.00  LINEAR    3.91558E-02    10.25    0.00000E+00     0.00
   38.00     0.00      -1.72 -999.99   -1.72    0.00000     0.00  LINEAR    4.49709E-02     9.53    0.00000E+00     0.00
   40.00     0.00      -0.63 -999.99   -0.63    0.00000     0.00  LINEAR    5.09556E-02     8.92    0.00000E+00     0.00
   42.00     0.00       0.34 -999.99    0.34    0.00000     0.00  LINEAR    5.69841E-02     8.40    0.00000E+00     0.00
   44.00     0.00       1.20 -999.99    1.20    0.00000     0.00  LINEAR    6.29107E-02     7.96    0.00000E+00     0.00
   46.00     0.00       1.95 -999.99    1.95    0.00000     0.00  LINEAR    6.85731E-02     7.58    0.00000E+00     0.00
   48.00     0.00       2.58 -999.99    2.58    0.00000     0.00  LINEAR    7.37967E-02     7.26    0.00000E+00     0.00
   50.00     0.00       3.11 -999.99    3.11    0.00000     0.00  LINEAR    7.84003E-02     6.98    0.00000E+00     0.00
   52.00     0.00       3.52 -999.99    3.52    0.00000     0.00  LINEAR    8.22033E-02     6.74    0.00000E+00     0.00
   54.00     0.00       3.82 -999.99    3.82    0.00000     0.00  LINEAR    8.50339E-02     6.53    0.00000E+00     0.00
   56.00     0.00       3.99 -999.99    3.99    0.00000     0.00  LINEAR    8.67384E-02     6.35    0.00000E+00     0.00
   58.00     0.00       4.03 -999.99    4.03    0.00000     0.00  LINEAR    8.71906E-02     6.21    0.00000E+00     0.00
   60.00     0.00       3.94 -999.99    3.94    0.00000     0.00  LINEAR    8.63015E-02     6.09    0.00000E+00     0.00
   62.00     0.00       3.71 -999.99    3.71    0.00000     0.00  LINEAR    8.40274E-02     5.99    0.00000E+00     0.00
   64.00     0.00       3.33 -999.99    3.33    0.00000     0.00  LINEAR    8.03776E-02     5.92    0.00000E+00     0.00
   66.00     0.00       2.77 -999.99    2.77    0.00000     0.00  LINEAR    7.54191E-02     5.88    0.00000E+00     0.00
   68.00     0.00       2.04 -999.99    2.04    0.00000     0.00  LINEAR    6.92788E-02     5.88    0.00000E+00     0.00
   70.00     0.00       1.09 -999.99    1.09    0.00000     0.00  LINEAR    6.21428E-02     5.91    0.00000E+00     0.00
   72.00     0.00      -0.09 -999.99   -0.09    0.00000     0.00  LINEAR    5.42515E-02     5.99    0.00000E+00     0.00
   74.00     0.00      -1.54 -999.99   -1.54    0.00000     0.00  LINEAR    4.58921E-02     6.14    0.00000E+00     0.00
   76.00     0.00      -3.32 -999.99   -3.32    0.00000     0.00  LINEAR    3.73870E-02     6.40    0.00000E+00     0.00
   78.00     0.00      -5.51 -999.99   -5.51    0.00000     0.00  LINEAR    2.90796E-02     6.84    0.00000E+00     0.00
   80.00     0.00      -8.20 -999.99   -8.20    0.00000     0.00  LINEAR    2.13184E-02     7.58    0.00000E+00     0.00
   82.00     0.00     -11.59 -999.99  -11.59    0.00000     0.00  LINEAR    1.44400E-02     8.94    0.00000E+00     0.00
   84.00     0.00     -15.93 -999.99  -15.93    0.00000     0.00  LINEAR    8.75527E-03    11.72    0.00000E+00     0.00
   86.00     0.00     -21.63 -999.99  -21.63    0.00000     0.00  LINEAR    4.54316E-03    18.37    0.00000E+00     0.00
   88.00     0.00     -28.45 -999.99  -28.45    0.00000     0.00  LINEAR    2.07086E-03    36.05    0.00000E+00     0.00
   90.00     0.00     -31.93 -999.99  -31.93    0.00000     0.00  LINEAR    1.38768E-03    55.72    0.00000E+00     0.00
   92.00     0.00     -28.45 -999.99  -28.45    0.00000     0.00  LINEAR    2.07086E-03    36.05    0.00000E+00     0.00
   94.00     0.00     -21.63 -999.99  -21.63    0.00000     0.00  LINEAR    4.54316E-03    18.37    0.00000E+00     0.00
   96.00     0.00     -15.93 -999.99  -15.93    0.00000     0.00  LINEAR    8.75527E-03    11.72    0.00000E+00     0.00
   98.00     0.00     -11.59 -999.99  -11.59    0.00000     0.00  LINEAR    1.44401E-02     8.94    0.00000E+00     0.00
  100.00     0.00      -8.20 -999.99   -8.20    0.00000     0.00  LINEAR    2.13184E-02     7.58    0.00000E+00     0.00
  102.00     0.00      -5.51 -999.99   -5.51    0.00000     0.00  LINEAR    2.90797E-02     6.84    0.00000E+00     0.00
  104.00     0.00      -3.32 -999.99   -3.32    0.00000     0.00  LINEAR    3.73870E-02     6.40    0.00000E+00     0.00
  106.00     0.00      -1.54 -999.99   -1.54    0.00000     0.00  LINEAR    4.58921E-02     6.14    0.00000E+00     0.00
  108.00     0.00      -0.09 -999.99   -0.09    0.00000     0.00  LINEAR    5.42515E-02     5.99    0.00000E+00     0.00
  110.00     0.00       1.09 -999.99    1.09    0.00000     0.00  LINEAR    6.21428E-02     5.91    0.00000E+00     0.00
  112.00     0.00       2.04 -999.99    2.04    0.00000     0.00  LINEAR    6.92788E-02     5.88    0.00000E+00     0.00
  114.00     0.00       2.77 -999.99    2.77    0.00000     0.00  LINEAR    7.54191E-02     5.88    0.00000E+00     0.00
  116.00     0.00       3.33 -999.99    3.33    0.00000     0.00  LINEAR    8.03776E-02     5.92    0.00000E+00     0.00
  118.00     0.00       3.71 -999.99    3.71    0.00000     0.00  LINEAR    8.40274E-02     5.99    0.00000E+00     0.00
  120.00     0.00       3.94 -999.99    3.94    0.00000     0.00  LINEAR    8.63015E-02     6.09    0.00000E+00     0.00
  122.00     0.00       4.03 -999.99    4.03    0.00000     0.00  LINEAR    8.71906E-02     6.21    0.00000E+00     0.00
  124.00     0.00       3.99 -999.99    3.99    0.00000     0.00  LINEAR    8.67384E-02     6.35    0.00000E+00     0.00
  126.00     0.00       3.82 -999.99    3.82    0.00000     0.00  LINEAR    8.50339E-02     6.53    0.00000E+00     0.00
  128.00     0.00       3.52 -999.99    3.52    0.00000     0.00  LINEAR    8.22033E-02     6.74    0.00000E+00     0.00
  130.00     0.00       3.11 -999.99    3.11    0.00000     0.00  LINEAR    7.84003E-02     6.98    0.00000E+00     0.00
  132.00     0.00       2.58 -999.99    2.58    0.00000     0.00  LINEAR    7.37967E-02     7.26    0.00000E+00     0.00
  134.00     0.00       1.95 -999.99    1.95    0.00000     0.00  LINEAR    6.85731E-02     7.58    0.00000E+00     0.00
  136.00     0.00       1.20 -999.99    1.20    0.00000     0.00  LINEAR    6.29106E-02     7.96    0.00000E+00     0.00
  138.00     0.00       0.34 -999.99    0.34    0.00000     0.00  LINEAR    5.69841E-02     8.40    0.00000E+00     0.00
  140.00     0.00      -0.63 -999.99   -0.63    0.00000     0.00  LINEAR    5.09556E-02     8.92    0.00000E+00     0.00
  142.00     0.00      -1.72 -999.99   -1.72    0.00000     0.00  LINEAR    4.49709E-02     9.53    0.00000E+00     0.00
  144.00     0.00      -2.92 -999.99   -2.92    0.00000     0.00  LINEAR    3.91558E-02    10.25    0.00000E+00     0.00
  146.00     0.00      -4.25 -999.99   -4.25    0.00000     0.00  LINEAR    3.36153E-02    11.12    0.00000E+00     0.00
  148.00     0.00      -5.70 -999.99   -5.70    0.00000     0.00  LINEAR    2.84326E-02    12.17    0.00000E+00     0.00
  150.00     0.00      -7.29 -999.99   -7.29    0.00000     0.00  LINEAR    2.36701E-02    13.46    0.00000E+00     0.00
  152.00     0.00      -9.03 -999.99   -9.03    0.00000     0.00  LINEAR    1.93705E-02    15.05    0.00000E+00     0.00
  154.00     0.00     -10.94 -999.99  -10.94    0.00000     0.00  LINEAR    1.55586E-02    17.06    0.00000E+00     0.00
  156.00     0.00     -13.02 -999.99  -13.02    0.00000     0.00  LINEAR    1.22441E-02    19.64    0.00000E+00     0.00
  158.00     0.00     -15.29 -999.99  -15.29    0.00000     0.00  LINEAR    9.42346E-03    23.01    0.00000E+00     0.00
  160.00     0.00     -17.77 -999.99  -17.77    0.00000     0.00  LINEAR    7.08295E-03    27.50    0.00000E+00     0.00
  162.00     0.00     -20.46 -999.99  -20.46    0.00000     0.00  LINEAR    5.20060E-03    33.59    0.00000E+00     0.00
  164.00     0.00     -23.30 -999.99  -23.30    0.00000     0.00  LINEAR    3.74757E-03    41.89    0.00000E+00     0.00
  166.00     0.00     -26.19 -999.99  -26.19    0.00000     0.00  LINEAR    2.68648E-03    53.01    0.00000E+00     0.00
  168.00     0.00     -28.92 -999.99  -28.92    0.00000     0.00  LINEAR    1.96335E-03    66.89    0.00000E+00     0.00
  170.00     0.00     -31.28 -999.99  -31.28    0.00000     0.00  LINEAR    1.49527E-03    82.02    0.00000E+00     0.00
  172.00     0.00     -33.38 -999.99  -33.38    0.00000     0.00  LINEAR    1.17467E-03    95.81    0.00000E+00     0.00
  174.00     0.00     -35.65 -999.99  -35.65    0.00000     0.00  LINEAR    9.03856E-04   106.41    0.00000E+00     0.00
  176.00     0.00     -38.85 -999.99  -38.85    0.00000     0.00  LINEAR    6.25361E-04   113.50    0.00000E+00     0.00
  178.00     0.00     -44.63 -999.99  -44.63    0.00000     0.00  LINEAR    3.21668E-04   117.48    0.00000E+00     0.00
  180.00     0.00    -999.99 -999.99 -999.99    0.00000     0.00            9.50293E-14   -61.24    0.00000E+00     0.00
 ***** DATA CARD NO.  8   EN   0   181     1  1000 -1.80000E+02  0.00000E+00  2.00000E+00  0.00000E+00  0.00000E+00  0.00000E+00

 RUN TIME =     0.109
