1



                                 *********************************************

                                    NUMERICAL ELECTROMAGNETICS CODE (NEC-2D)

                                 *********************************************




                                     - - - - COMMENTS - - - -


                          Example 1 :	Dipole in free space 	                                         
                          See GetStarted.txt                                                         
                                                                                                     
                                                                                                     
                                                                                                     
                                                                                                     
                                                                                                     




                                 - - - STRUCTURE SPECIFICATION - - -

                                     COORDINATES MUST BE INPUT IN
                                     METERS OR BE SCALED TO METERS
                                     BEFORE STRUCTURE INPUT IS ENDED


  WIRE                                                                               NO. OF    FIRST  LAST     TAG
  NO.        X1         Y1         Z1          X2         Y2         Z2      RADIUS   SEG.     SEG.   SEG.     NO.
     1    0.00000    0.00000   -0.08715     0.00000    0.00000    0.08715    0.00035     21        1    21       1

   TOTAL SEGMENTS USED=   21     NO. SEG. IN A SYMMETRIC CELL=   21     SYMMETRY FLAG=  0


         - MULTIPLE WIRE JUNCTIONS -
 JUNCTION    SEGMENTS  (- FOR END 1, + FOR END 2)
  NONE




                                 - - - - SEGMENTATION DATA - - - -

                                        COORDINATES IN METERS

                         I+ AND I- INDICATE THE SEGMENTS BEFORE AND AFTER I


  SEG.   COORDINATES OF SEG. CENTER     SEG.     ORIENTATION ANGLES    WIRE    CONNECTION DATA   TAG
  NO.       X         Y         Z       LENGTH     ALPHA     BETA      RADIUS    I-   I    I+    NO.
     1   0.00000   0.00000  -0.08300   0.00830   90.00000   0.00000   0.00035     0    1    2      1
     2   0.00000   0.00000  -0.07470   0.00830   90.00000   0.00000   0.00035     1    2    3      1
     3   0.00000   0.00000  -0.06640   0.00830   90.00000   0.00000   0.00035     2    3    4      1
     4   0.00000   0.00000  -0.05810   0.00830   90.00000   0.00000   0.00035     3    4    5      1
     5   0.00000   0.00000  -0.04980   0.00830   90.00000   0.00000   0.00035     4    5    6      1
     6   0.00000   0.00000  -0.04150   0.00830   90.00000   0.00000   0.00035     5    6    7      1
     7   0.00000   0.00000  -0.03320   0.00830   90.00000   0.00000   0.00035     6    7    8      1
     8   0.00000   0.00000  -0.02490   0.00830   90.00000   0.00000   0.00035     7    8    9      1
     9   0.00000   0.00000  -0.01660   0.00830   90.00000   0.00000   0.00035     8    9   10      1
    10   0.00000   0.00000  -0.00830   0.00830   90.00000   0.00000   0.00035     9   10   11      1
    11   0.00000   0.00000   0.00000   0.00830   90.00000   0.00000   0.00035    10   11   12      1
    12   0.00000   0.00000   0.00830   0.00830   90.00000   0.00000   0.00035    11   12   13      1
    13   0.00000   0.00000   0.01660   0.00830   90.00000   0.00000   0.00035    12   13   14      1
    14   0.00000   0.00000   0.02490   0.00830   90.00000   0.00000   0.00035    13   14   15      1
    15   0.00000   0.00000   0.03320   0.00830   90.00000   0.00000   0.00035    14   15   16      1
    16   0.00000   0.00000   0.04150   0.00830   90.00000   0.00000   0.00035    15   16   17      1
    17   0.00000   0.00000   0.04980   0.00830   90.00000   0.00000   0.00035    16   17   18      1
    18   0.00000   0.00000   0.05810   0.00830   90.00000   0.00000   0.00035    17   18   19      1
    19   0.00000   0.00000   0.06640   0.00830   90.00000   0.00000   0.00035    18   19   20      1
    20   0.00000   0.00000   0.07470   0.00830   90.00000   0.00000   0.00035    19   20   21      1
    21   0.00000   0.00000   0.08300   0.00830   90.00000   0.00000   0.00035    20   21    0      1






 ***** DATA CARD NO.  1   GN  -1     0     0     0  0.00000E+00  0.00000E+00  0.00000E+00  0.00000E+00  0.00000E+00  0.00000E+00
 ***** DATA CARD NO.  2   EK   0     0     0     0  0.00000E+00  0.00000E+00  0.00000E+00  0.00000E+00  0.00000E+00  0.00000E+00
 ***** DATA CARD NO.  3   EX   0     1    11     0  1.00000E+00  0.00000E+00  0.00000E+00  0.00000E+00  0.00000E+00  0.00000E+00
 ***** DATA CARD NO.  4   FR   0     0     0     0  8.60000E+02  0.00000E+00  0.00000E+00  0.00000E+00  0.00000E+00  0.00000E+00
 ***** DATA CARD NO.  5   RP   0    91   181  1003 -1.80000E+02  0.00000E+00  2.00000E+00  2.00000E+00  0.00000E+00  0.00000E+00




                                 - - - - - - FREQUENCY - - - - - -

                                    FREQUENCY= 8.6000E+02 MHZ
                                    WAVELENGTH= 3.4860E-01 METERS




                    APPROXIMATE INTEGRATION EMPLOYED FOR SEGMENTS MORE THAN   1.000 WAVELENGTHS APART

                    THE EXTENDED THIN WIRE KERNEL WILL BE USED



                               - - - STRUCTURE IMPEDANCE LOADING - - -

                                   THIS STRUCTURE IS NOT LOADED



                                  - - - ANTENNA ENVIRONMENT - - -

                                            FREE SPACE



                                - - - MATRIX TIMING - - -

                        FILL=    0.000 SEC.,  FACTOR=    0.000 SEC.



                                          - - - ANTENNA INPUT PARAMETERS - - -

   TAG   SEG.    VOLTAGE (VOLTS)         CURRENT (AMPS)         IMPEDANCE (OHMS)        ADMITTANCE (MHOS)      POWER
   NO.   NO.    REAL        IMAG.       REAL        IMAG.       REAL        IMAG.       REAL        IMAG.     (WATTS)
     1    11 1.00000E+00 0.00000E+00 8.93689E-03-5.05245E-03 8.47941E+01 4.79381E+01 8.93689E-03-5.05245E-03 4.46844E-03



                             - - - CURRENTS AND LOCATION - - -

                                 DISTANCES IN WAVELENGTHS


  SEG.  TAG    COORD. OF SEG. CENTER     SEG.            - - - CURRENT (AMPS) - - -
  NO.   NO.     X        Y        Z      LENGTH     REAL        IMAG.       MAG.        PHASE
     1    1   0.0000   0.0000  -0.2381  0.02381   9.4141E-04 -7.1868E-04  1.1844E-03  -37.358
     2    1   0.0000   0.0000  -0.2143  0.02381   2.3807E-03 -1.7868E-03  2.9766E-03  -36.890
     3    1   0.0000   0.0000  -0.1905  0.02381   3.6466E-03 -2.6874E-03  4.5299E-03  -36.388
     4    1   0.0000   0.0000  -0.1667  0.02381   4.8021E-03 -3.4701E-03  5.9247E-03  -35.853
     5    1   0.0000   0.0000  -0.1429  0.02381   5.8414E-03 -4.1317E-03  7.1549E-03  -35.273
     6    1   0.0000   0.0000  -0.1190  0.02381   6.7517E-03 -4.6636E-03  8.2058E-03  -34.634
     7    1   0.0000   0.0000  -0.0952  0.02381   7.5192E-03 -5.0559E-03  9.0609E-03  -33.917
     8    1   0.0000   0.0000  -0.0714  0.02381   8.1308E-03 -5.2991E-03  9.7052E-03  -33.093
     9    1   0.0000   0.0000  -0.0476  0.02381   8.5759E-03 -5.3826E-03  1.0125E-02  -32.115
    10    1   0.0000   0.0000  -0.0238  0.02381   8.8462E-03 -5.2830E-03  1.0304E-02  -30.846
    11    1   0.0000   0.0000   0.0000  0.02381   8.9369E-03 -5.0524E-03  1.0266E-02  -29.482
    12    1   0.0000   0.0000   0.0238  0.02381   8.8462E-03 -5.2830E-03  1.0304E-02  -30.846
    13    1   0.0000   0.0000   0.0476  0.02381   8.5759E-03 -5.3826E-03  1.0125E-02  -32.115
    14    1   0.0000   0.0000   0.0714  0.02381   8.1308E-03 -5.2991E-03  9.7052E-03  -33.093
    15    1   0.0000   0.0000   0.0952  0.02381   7.5192E-03 -5.0559E-03  9.0609E-03  -33.917
    16    1   0.0000   0.0000   0.1190  0.02381   6.7517E-03 -4.6636E-03  8.2058E-03  -34.634
    17    1   0.0000   0.0000   0.1429  0.02381   5.8414E-03 -4.1317E-03  7.1549E-03  -35.273
    18    1   0.0000   0.0000   0.1667  0.02381   4.8021E-03 -3.4701E-03  5.9247E-03  -35.853
    19    1   0.0000   0.0000   0.1905  0.02381   3.6466E-03 -2.6874E-03  4.5299E-03  -36.388
    20    1   0.0000   0.0000   0.2143  0.02381   2.3807E-03 -1.7868E-03  2.9766E-03  -36.890
    21    1   0.0000   0.0000   0.2381  0.02381   9.4141E-04 -7.1868E-04  1.1844E-03  -37.358



                                        - - - POWER BUDGET - - -

                                           INPUT POWER   = 4.4684E-03 WATTS
                                           RADIATED POWER= 4.4684E-03 WATTS
                                           STRUCTURE LOSS= 0.0000E+00 WATTS
                                           NETWORK LOSS  = 0.0000E+00 WATTS
                                           EFFICIENCY    = 100.00 PERCENT



                                                - - - RADIATION PATTERNS - - -

  - - ANGLES - -           - POWER GAINS -       - - - POLARIZATION - - -    - - - E(THETA) - - -    - - - E(PHI) - - -
  THETA     PHI        VERT.   HOR.    TOTAL      AXIAL     TILT   SENSE     MAGNITUDE    PHASE      MAGNITUDE    PHASE 
 DEGREES  DEGREES       DB      DB      DB        RATIO     DEG.              VOLTS/M    DEGREES      VOLTS/M    DEGREES
 -180.00     0.00    -999.99 -999.99 -999.99    0.00000     0.00            5.22197E-12    57.07    0.00000E+00     0.00
 -178.00     0.00     -29.24 -999.99  -29.24    0.00000     0.00  LINEAR    1.78610E-02  -122.93    0.00000E+00     0.00
 -176.00     0.00     -23.22 -999.99  -23.22    0.00000     0.00  LINEAR    3.57359E-02  -122.93    0.00000E+00     0.00
 -174.00     0.00     -19.69 -999.99  -19.69    0.00000     0.00  LINEAR    5.36381E-02  -122.94    0.00000E+00     0.00
 -172.00     0.00     -17.18 -999.99  -17.18    0.00000     0.00  LINEAR    7.15804E-02  -122.94    0.00000E+00     0.00
 -170.00     0.00     -15.24 -999.99  -15.24    0.00000     0.00  LINEAR    8.95748E-02  -122.95    0.00000E+00     0.00
 -168.00     0.00     -13.64 -999.99  -13.64    0.00000     0.00  LINEAR    1.07632E-01  -122.96    0.00000E+00     0.00
 -166.00     0.00     -12.29 -999.99  -12.29    0.00000     0.00  LINEAR    1.25760E-01  -122.97    0.00000E+00     0.00
 -164.00     0.00     -11.11 -999.99  -11.11    0.00000     0.00  LINEAR    1.43968E-01  -122.98    0.00000E+00     0.00
 -162.00     0.00     -10.08 -999.99  -10.08    0.00000     0.00  LINEAR    1.62258E-01  -122.99    0.00000E+00     0.00
 -160.00     0.00      -9.14 -999.99   -9.14    0.00000     0.00  LINEAR    1.80635E-01  -123.01    0.00000E+00     0.00
 -158.00     0.00      -8.30 -999.99   -8.30    0.00000     0.00  LINEAR    1.99098E-01  -123.02    0.00000E+00     0.00
 -156.00     0.00      -7.53 -999.99   -7.53    0.00000     0.00  LINEAR    2.17642E-01  -123.04    0.00000E+00     0.00
 -154.00     0.00      -6.81 -999.99   -6.81    0.00000     0.00  LINEAR    2.36263E-01  -123.06    0.00000E+00     0.00
 -152.00     0.00      -6.15 -999.99   -6.15    0.00000     0.00  LINEAR    2.54950E-01  -123.07    0.00000E+00     0.00
 -150.00     0.00      -5.53 -999.99   -5.53    0.00000     0.00  LINEAR    2.73689E-01  -123.09    0.00000E+00     0.00
 -148.00     0.00      -4.96 -999.99   -4.96    0.00000     0.00  LINEAR    2.92464E-01  -123.11    0.00000E+00     0.00
 -146.00     0.00      -4.42 -999.99   -4.42    0.00000     0.00  LINEAR    3.11254E-01  -123.13    0.00000E+00     0.00
 -144.00     0.00      -3.91 -999.99   -3.91    0.00000     0.00  LINEAR    3.30032E-01  -123.15    0.00000E+00     0.00
 -142.00     0.00      -3.43 -999.99   -3.43    0.00000     0.00  LINEAR    3.48772E-01  -123.17    0.00000E+00     0.00
 -140.00     0.00      -2.98 -999.99   -2.98    0.00000     0.00  LINEAR    3.67440E-01  -123.19    0.00000E+00     0.00
 -138.00     0.00      -2.55 -999.99   -2.55    0.00000     0.00  LINEAR    3.85999E-01  -123.21    0.00000E+00     0.00
 -136.00     0.00      -2.14 -999.99   -2.14    0.00000     0.00  LINEAR    4.04409E-01  -123.23    0.00000E+00     0.00
 -134.00     0.00      -1.76 -999.99   -1.76    0.00000     0.00  LINEAR    4.22627E-01  -123.25    0.00000E+00     0.00
 -132.00     0.00      -1.40 -999.99   -1.40    0.00000     0.00  LINEAR    4.40606E-01  -123.27    0.00000E+00     0.00
 -130.00     0.00      -1.06 -999.99   -1.06    0.00000     0.00  LINEAR    4.58294E-01  -123.29    0.00000E+00     0.00
 -128.00     0.00      -0.73 -999.99   -0.73    0.00000     0.00  LINEAR    4.75640E-01  -123.31    0.00000E+00     0.00
 -126.00     0.00      -0.43 -999.99   -0.43    0.00000     0.00  LINEAR    4.92587E-01  -123.33    0.00000E+00     0.00
 -124.00     0.00      -0.14 -999.99   -0.14    0.00000     0.00  LINEAR    5.09078E-01  -123.35    0.00000E+00     0.00
 -122.00     0.00       0.12 -999.99    0.12    0.00000     0.00  LINEAR    5.25054E-01  -123.37    0.00000E+00     0.00
 -120.00     0.00       0.38 -999.99    0.38    0.00000     0.00  LINEAR    5.40455E-01  -123.38    0.00000E+00     0.00
 -118.00     0.00       0.61 -999.99    0.61    0.00000     0.00  LINEAR    5.55221E-01  -123.40    0.00000E+00     0.00
 -116.00     0.00       0.83 -999.99    0.83    0.00000     0.00  LINEAR    5.69291E-01  -123.41    0.00000E+00     0.00
 -114.00     0.00       1.03 -999.99    1.03    0.00000     0.00  LINEAR    5.82605E-01  -123.43    0.00000E+00     0.00
 -112.00     0.00       1.21 -999.99    1.21    0.00000     0.00  LINEAR    5.95105E-01  -123.44    0.00000E+00     0.00
 -110.00     0.00       1.38 -999.99    1.38    0.00000     0.00  LINEAR    6.06733E-01  -123.45    0.00000E+00     0.00
 -108.00     0.00       1.53 -999.99    1.53    0.00000     0.00  LINEAR    6.17437E-01  -123.47    0.00000E+00     0.00
 -106.00     0.00       1.67 -999.99    1.67    0.00000     0.00  LINEAR    6.27164E-01  -123.48    0.00000E+00     0.00
 -104.00     0.00       1.79 -999.99    1.79    0.00000     0.00  LINEAR    6.35867E-01  -123.48    0.00000E+00     0.00
 -102.00     0.00       1.89 -999.99    1.89    0.00000     0.00  LINEAR    6.43502E-01  -123.49    0.00000E+00     0.00
 -100.00     0.00       1.98 -999.99    1.98    0.00000     0.00  LINEAR    6.50031E-01  -123.50    0.00000E+00     0.00
  -98.00     0.00       2.05 -999.99    2.05    0.00000     0.00  LINEAR    6.55421E-01  -123.50    0.00000E+00     0.00
  -96.00     0.00       2.11 -999.99    2.11    0.00000     0.00  LINEAR    6.59642E-01  -123.51    0.00000E+00     0.00
  -94.00     0.00       2.15 -999.99    2.15    0.00000     0.00  LINEAR    6.62673E-01  -123.51    0.00000E+00     0.00
  -92.00     0.00       2.17 -999.99    2.17    0.00000     0.00  LINEAR    6.64499E-01  -123.51    0.00000E+00     0.00
  -90.00     0.00       2.18 -999.99    2.18    0.00000     0.00  LINEAR    6.65108E-01  -123.51    0.00000E+00     0.00
  -88.00     0.00       2.17 -999.99    2.17    0.00000     0.00  LINEAR    6.64499E-01  -123.51    0.00000E+00     0.00
  -86.00     0.00       2.15 -999.99    2.15    0.00000     0.00  LINEAR    6.62673E-01  -123.51    0.00000E+00     0.00
  -84.00     0.00       2.11 -999.99    2.11    0.00000     0.00  LINEAR    6.59642E-01  -123.51    0.00000E+00     0.00
  -82.00     0.00       2.05 -999.99    2.05    0.00000     0.00  LINEAR    6.55421E-01  -123.50    0.00000E+00     0.00
  -80.00     0.00       1.98 -999.99    1.98    0.00000     0.00  LINEAR    6.50031E-01  -123.50    0.00000E+00     0.00
  -78.00     0.00       1.89 -999.99    1.89    0.00000     0.00  LINEAR    6.43502E-01  -123.49    0.00000E+00     0.00
  -76.00     0.00       1.79 -999.99    1.79    0.00000     0.00  LINEAR    6.35867E-01  -123.48    0.00000E+00     0.00
  -74.00     0.00       1.67 -999.99    1.67    0.00000     0.00  LINEAR    6.27164E-01  -123.48    0.00000E+00     0.00
  -72.00     0.00       1.53 -999.99    1.53    0.00000     0.00  LINEAR    6.17437E-01  -123.47    0.00000E+00     0.00
  -70.00     0.00       1.38 -999.99    1.38    0.00000     0.00  LINEAR    6.06733E-01  -123.45    0.00000E+00     0.00
  -68.00     0.00       1.21 -999.99    1.21    0.00000     0.00  LINEAR    5.95105E-01  -123.44    0.00000E+00     0.00
  -66.00     0.00       1.03 -999.99    1.03    0.00000     0.00  LINEAR    5.82605E-01  -123.43    0.00000E+00     0.00
  -64.00     0.00       0.83 -999.99    0.83    0.00000     0.00  LINEAR    5.69291E-01  -123.41    0.00000E+00     0.00
  -62.00     0.00       0.61 -999.99    0.61    0.00000     0.00  LINEAR    5.55221E-01  -123.40    0.00000E+00     0.00
  -60.00     0.00       0.38 -999.99    0.38    0.00000     0.00  LINEAR    5.40455E-01  -123.38    0.00000E+00     0.00
  -58.00     0.00       0.12 -999.99    0.12    0.00000     0.00  LINEAR    5.25054E-01  -123.37    0.00000E+00     0.00
  -56.00     0.00      -0.14 -999.99   -0.14    0.00000     0.00  LINEAR    5.09078E-01  -123.35    0.00000E+00     0.00
  -54.00     0.00      -0.43 -999.99   -0.43    0.00000     0.00  LINEAR    4.92587E-01  -123.33    0.00000E+00     0.00
  -52.00     0.00      -0.73 -999.99   -0.73    0.00000     0.00  LINEAR    4.75640E-01  -123.31    0.00000E+00     0.00
  -50.00     0.00      -1.06 -999.99   -1.06    0.00000     0.00  LINEAR    4.58294E-01  -123.29    0.00000E+00     0.00
  -48.00     0.00      -1.40 -999.99   -1.40    0.00000     0.00  LINEAR    4.40606E-01  -123.27    0.00000E+00     0.00
  -46.00     0.00      -1.76 -999.99   -1.76    0.00000     0.00  LINEAR    4.22627E-01  -123.25    0.00000E+00     0.00
  -44.00     0.00      -2.14 -999.99   -2.14    0.00000     0.00  LINEAR    4.04409E-01  -123.23    0.00000E+00     0.00
  -42.00     0.00      -2.55 -999.99   -2.55    0.00000     0.00  LINEAR    3.85999E-01  -123.21    0.00000E+00     0.00
  -40.00     0.00      -2.98 -999.99   -2.98    0.00000     0.00  LINEAR    3.67440E-01  -123.19    0.00000E+00     0.00
  -38.00     0.00      -3.43 -999.99   -3.43    0.00000     0.00  LINEAR    3.48772E-01  -123.17    0.00000E+00     0.00
  -36.00     0.00      -3.91 -999.99   -3.91    0.00000     0.00  LINEAR    3.30032E-01  -123.15    0.00000E+00     0.00
  -34.00     0.00      -4.42 -999.99   -4.42    0.00000     0.00  LINEAR    3.11254E-01  -123.13    0.00000E+00     0.00
  -32.00     0.00      -4.96 -999.99   -4.96    0.00000     0.00  LINEAR    2.92464E-01  -123.11    0.00000E+00     0.00
  -30.00     0.00      -5.53 -999.99   -5.53    0.00000     0.00  LINEAR    2.73689E-01  -123.09    0.00000E+00     0.00
  -28.00     0.00      -6.15 -999.99   -6.15    0.00000     0.00  LINEAR    2.54950E-01  -123.07    0.00000E+00     0.00
  -26.00     0.00      -6.81 -999.99   -6.81    0.00000     0.00  LINEAR    2.36263E-01  -123.06    0.00000E+00     0.00
  -24.00     0.00      -7.53 -999.99   -7.53    0.00000     0.00  LINEAR    2.17642E-01  -123.04    0.00000E+00     0.00
  -22.00     0.00      -8.30 -999.99   -8.30    0.00000     0.00  LINEAR    1.99098E-01  -123.02    0.00000E+00     0.00
  -20.00     0.00      -9.14 -999.99   -9.14    0.00000     0.00  LINEAR    1.80635E-01  -123.01    0.00000E+00     0.00
  -18.00     0.00     -10.08 -999.99  -10.08    0.00000     0.00  LINEAR    1.62258E-01  -122.99    0.00000E+00     0.00
  -16.00     0.00     -11.11 -999.99  -11.11    0.00000     0.00  LINEAR    1.43968E-01  -122.98    0.00000E+00     0.00
  -14.00     0.00     -12.29 -999.99  -12.29    0.00000     0.00  LINEAR    1.25760E-01  -122.97    0.00000E+00     0.00
  -12.00     0.00     -13.64 -999.99  -13.64    0.00000     0.00  LINEAR    1.07632E-01  -122.96    0.00000E+00     0.00
  -10.00     0.00     -15.24 -999.99  -15.24    0.00000     0.00  LINEAR    8.95748E-02  -122.95    0.00000E+00     0.00
   -8.00     0.00     -17.18 -999.99  -17.18    0.00000     0.00  LINEAR    7.15804E-02  -122.94    0.00000E+00     0.00
   -6.00     0.00     -19.69 -999.99  -19.69    0.00000     0.00  LINEAR    5.36381E-02  -122.94    0.00000E+00     0.00
   -4.00     0.00     -23.22 -999.99  -23.22    0.00000     0.00  LINEAR    3.57359E-02  -122.93    0.00000E+00     0.00
   -2.00     0.00     -29.24 -999.99  -29.24    0.00000     0.00  LINEAR    1.78610E-02  -122.93    0.00000E+00     0.00
    0.00     0.00    -999.99 -999.99 -999.99    0.00000     0.00            0.00000E+00     0.00    0.00000E+00     0.00
 -180.00     2.00    -999.99 -999.99 -999.99    0.00000     0.00            5.22197E-12    57.07    0.00000E+00     0.00
 -178.00     2.00     -29.24 -999.99  -29.24    0.00000     0.00  LINEAR    1.78610E-02  -122.93    0.00000E+00     0.00
 -176.00     2.00     -23.22 -999.99  -23.22    0.00000     0.00  LINEAR    3.57359E-02  -122.93    0.00000E+00     0.00
 -174.00     2.00     -19.69 -999.99  -19.69    0.00000     0.00  LINEAR    5.36381E-02  -122.94    0.00000E+00     0.00
 -172.00     2.00     -17.18 -999.99  -17.18    0.00000     0.00  LINEAR    7.15804E-02  -122.94    0.00000E+00     0.00
 -170.00     2.00     -15.24 -999.99  -15.24    0.00000     0.00  LINEAR    8.95748E-02  -122.95    0.00000E+00     0.00
 -168.00     2.00     -13.64 -999.99  -13.64    0.00000     0.00  LINEAR    1.07632E-01  -122.96    0.00000E+00     0.00
 -166.00     2.00     -12.29 -999.99  -12.29    0.00000     0.00  LINEAR    1.25760E-01  -122.97    0.00000E+00     0.00
 -164.00     2.00     -11.11 -999.99  -11.11    0.00000     0.00  LINEAR    1.43968E-01  -122.98    0.00000E+00     0.00
 -162.00     2.00     -10.08 -999.99  -10.08    0.00000     0.00  LINEAR    1.62258E-01  -122.99    0.00000E+00     0.00
 -160.00     2.00      -9.14 -999.99   -9.14    0.00000     0.00  LINEAR    1.80635E-01  -123.01    0.00000E+00     0.00
 -158.00     2.00      -8.30 -999.99   -8.30    0.00000     0.00  LINEAR    1.99098E-01  -123.02    0.00000E+00     0.00
 -156.00     2.00      -7.53 -999.99   -7.53    0.00000     0.00  LINEAR    2.17642E-01  -123.04    0.00000E+00     0.00
 -154.00     2.00      -6.81 -999.99   -6.81    0.00000     0.00  LINEAR    2.36263E-01  -123.06    0.00000E+00     0.00
 -152.00     2.00      -6.15 -999.99   -6.15    0.00000     0.00  LINEAR    2.54950E-01  -123.07    0.00000E+00     0.00
 -150.00     2.00      -5.53 -999.99   -5.53    0.00000     0.00  LINEAR    2.73689E-01  -123.09    0.00000E+00     0.00
 -148.00     2.00      -4.96 -999.99   -4.96    0.00000     0.00  LINEAR    2.92464E-01  -123.11    0.00000E+00     0.00
 -146.00     2.00      -4.42 -999.99   -4.42    0.00000     0.00  LINEAR    3.11254E-01  -123.13    0.00000E+00     0.00
 -144.00     2.00      -3.91 -999.99   -3.91    0.00000     0.00  LINEAR    3.30032E-01  -123.15    0.00000E+00     0.00
 -142.00     2.00      -3.43 -999.99   -3.43    0.00000     0.00  LINEAR    3.48772E-01  -123.17    0.00000E+00     0.00
 -140.00     2.00      -2.98 -999.99   -2.98    0.00000     0.00  LINEAR    3.67440E-01  -123.19    0.00000E+00     0.00
 -138.00     2.00      -2.55 -999.99   -2.55    0.00000     0.00  LINEAR    3.85999E-01  -123.21    0.00000E+00     0.00
 -136.00     2.00      -2.14 -999.99   -2.14    0.00000     0.00  LINEAR    4.04409E-01  -123.23    0.00000E+00     0.00
 -134.00     2.00      -1.76 -999.99   -1.76    0.00000     0.00  LINEAR    4.22627E-01  -123.25    0.00000E+00     0.00
 -132.00     2.00      -1.40 -999.99   -1.40    0.00000     0.00  LINEAR    4.40606E-01  -123.27    0.00000E+00     0.00
 -130.00     2.00      -1.06 -999.99   -1.06    0.00000     0.00  LINEAR    4.58294E-01  -123.29    0.00000E+00     0.00
 -128.00     2.00      -0.73 -999.99   -0.73    0.00000     0.00  LINEAR    4.75640E-01  -123.31    0.00000E+00     0.00
 -126.00     2.00      -0.43 -999.99   -0.43    0.00000     0.00  LINEAR    4.92587E-01  -123.33    0.00000E+00     0.00
 -124.00     2.00      -0.14 -999.99   -0.14    0.00000     0.00  LINEAR    5.09078E-01  -123.35    0.00000E+00     0.00
 -122.00     2.00       0.12 -999.99    0.12    0.00000     0.00  LINEAR    5.25054E-01  -123.37    0.00000E+00     0.00
 -120.00     2.00       0.38 -999.99    0.38    0.00000     0.00  LINEAR    5.40455E-01  -123.38    0.00000E+00     0.00
 -118.00     2.00       0.61 -999.99    0.61    0.00000     0.00  LINEAR    5.55221E-01  -123.40    0.00000E+00     0.00
 -116.00     2.00       0.83 -999.99    0.83    0.00000     0.00  LINEAR    5.69291E-01  -123.41    0.00000E+00     0.00
 -114.00     2.00       1.03 -999.99    1.03    0.00000     0.00  LINEAR    5.82605E-01  -123.43    0.00000E+00     0.00
 -112.00     2.00       1.21 -999.99    1.21    0.00000     0.00  LINEAR    5.95105E-01  -123.44    0.00000E+00     0.00
 -110.00     2.00       1.38 -999.99    1.38    0.00000     0.00  LINEAR    6.06733E-01  -123.45    0.00000E+00     0.00
 -108.00     2.00       1.53 -999.99    1.53    0.00000     0.00  LINEAR    6.17437E-01  -123.47    0.00000E+00     0.00
 -106.00     2.00       1.67 -999.99    1.67    0.00000     0.00  LINEAR    6.27164E-01  -123.48    0.00000E+00     0.00
 -104.00     2.00       1.79 -999.99    1.79    0.00000     0.00  LINEAR    6.35867E-01  -123.48    0.00000E+00     0.00
 -102.00     2.00       1.89 -999.99    1.89    0.00000     0.00  LINEAR    6.43502E-01  -123.49    0.00000E+00     0.00
 -100.00     2.00       1.98 -999.99    1.98    0.00000     0.00  LINEAR    6.50031E-01  -123.50    0.00000E+00     0.00
  -98.00     2.00       2.05 -999.99    2.05    0.00000     0.00  LINEAR    6.55421E-01  -123.50    0.00000E+00     0.00
  -96.00     2.00       2.11 -999.99    2.11    0.00000     0.00  LINEAR    6.59642E-01  -123.51    0.00000E+00     0.00
  -94.00     2.00       2.15 -999.99    2.15    0.00000     0.00  LINEAR    6.62673E-01  -123.51    0.00000E+00     0.00
  -92.00     2.00       2.17 -999.99    2.17    0.00000     0.00  LINEAR    6.64499E-01  -123.51    0.00000E+00     0.00
  -90.00     2.00       2.18 -999.99    2.18    0.00000     0.00  LINEAR    6.65108E-01  -123.51    0.00000E+00     0.00
  -88.00     2.00       2.17 -999.99    2.17    0.00000     0.00  LINEAR    6.64499E-01  -123.51    0.00000E+00     0.00
  -86.00     2.00       2.15 -999.99    2.15    0.00000     0.00  LINEAR    6.62673E-01  -123.51    0.00000E+00     0.00
  -84.00     2.00       2.11 -999.99    2.11    0.00000     0.00  LINEAR    6.59642E-01  -123.51    0.00000E+00     0.00
  -82.00     2.00       2.05 -999.99    2.05    0.00000     0.00  LINEAR    6.55421E-01  -123.50    0.00000E+00     0.00
  -80.00     2.00       1.98 -999.99    1.98    0.00000     0.00  LINEAR    6.50031E-01  -123.50    0.00000E+00     0.00
  -78.00     2.00       1.89 -999.99    1.89    0.00000     0.00  LINEAR    6.43502E-01  -123.49    0.00000E+00     0.00
  -76.00     2.00       1.79 -999.99    1.79    0.00000     0.00  LINEAR    6.35867E-01  -123.48    0.00000E+00     0.00
  -74.00     2.00       1.67 -999.99    1.67    0.00000     0.00  LINEAR    6.27164E-01  -123.48    0.00000E+00     0.00
  -72.00     2.00       1.53 -999.99    1.53    0.00000     0.00  LINEAR    6.17437E-01  -123.47    0.00000E+00     0.00
  -70.00     2.00       1.38 -999.99    1.38    0.00000     0.00  LINEAR    6.06733E-01  -123.45    0.00000E+00     0.00
  -68.00     2.00       1.21 -999.99    1.21    0.00000     0.00  LINEAR    5.95105E-01  -123.44    0.00000E+00     0.00
  -66.00     2.00       1.03 -999.99    1.03    0.00000     0.00  LINEAR    5.82605E-01  -123.43    0.00000E+00     0.00
  -64.00     2.00       0.83 -999.99    0.83    0.00000     0.00  LINEAR    5.69291E-01  -123.41    0.00000E+00     0.00
  -62.00     2.00       0.61 -999.99    0.61    0.00000     0.00  LINEAR    5.55221E-01  -123.40    0.00000E+00     0.00
  -60.00     2.00       0.38 -999.99    0.38    0.00000     0.00  LINEAR    5.40455E-01  -123.38    0.00000E+00     0.00
  -58.00     2.00       0.12 -999.99    0.12    0.00000     0.00  LINEAR    5.25054E-01  -123.37    0.00000E+00     0.00
  -56.00     2.00      -0.14 -999.99   -0.14    0.00000     0.00  LINEAR    5.09078E-01  -123.35    0.00000E+00     0.00
  -54.00     2.00      -0.43 -999.99   -0.43    0.00000     0.00  LINEAR    4.92587E-01  -123.33    0.00000E+00     0.00
  -52.00     2.00      -0.73 -999.99   -0.73    0.00000     0.00  LINEAR    4.75640E-01  -123.31    0.00000E+00     0.00
  -50.00     2.00      -1.06 -999.99   -1.06    0.00000     0.00  LINEAR    4.58294E-01  -123.29    0.00000E+00     0.00
  -48.00     2.00      -1.40 -999.99   -1.40    0.00000     0.00  LINEAR    4.40606E-01  -123.27    0.00000E+00     0.00
  -46.00     2.00      -1.76 -999.99   -1.76    0.00000     0.00  LINEAR    4.22627E-01  -123.25    0.00000E+00     0.00
  -44.00     2.00      -2.14 -999.99   -2.14    0.00000     0.00  LINEAR    4.04409E-01  -123.23    0.00000E+00     0.00
  -42.00     2.00      -2.55 -999.99   -2.55    0.00000     0.00  LINEAR    3.85999E-01  -123.21    0.00000E+00     0.00
  -40.00     2.00      -2.98 -999.99   -2.98    0.00000     0.00  LINEAR    3.67440E-01  -123.19    0.00000E+00     0.00
  -38.00     2.00      -3.43 -999.99   -3.43    0.00000     0.00  LINEAR    3.48772E-01  -123.17    0.00000E+00     0.00
  -36.00     2.00      -3.91 -999.99   -3.91    0.00000     0.00  LINEAR    3.30032E-01  -123.15    0.00000E+00     0.00
  -34.00     2.00      -4.42 -999.99   -4.42    0.00000     0.00  LINEAR    3.11254E-01  -123.13    0.00000E+00     0.00
  -32.00     2.00      -4.96 -999.99   -4.96    0.00000     0.00  LINEAR    2.92464E-01  -123.11    0.00000E+00     0.00
  -30.00     2.00      -5.53 -999.99   -5.53    0.00000     0.00  LINEAR    2.73689E-01  -123.09    0.00000E+00     0.00
  -28.00     2.00      -6.15 -999.99   -6.15    0.00000     0.00  LINEAR    2.54950E-01  -123.07    0.00000E+00     0.00
  -26.00     2.00      -6.81 -999.99   -6.81    0.00000     0.00  LINEAR    2.36263E-01  -123.06    0.00000E+00     0.00
  -24.00     2.00      -7.53 -999.99   -7.53    0.00000     0.00  LINEAR    2.17642E-01  -123.04    0.00000E+00     0.00
  -22.00     2.00      -8.30 -999.99   -8.30    0.00000     0.00  LINEAR    1.99098E-01  -123.02    0.00000E+00     0.00
  -20.00     2.00      -9.14 -999.99   -9.14    0.00000     0.00  LINEAR    1.80635E-01  -123.01    0.00000E+00     0.00
  -18.00     2.00     -10.08 -999.99  -10.08    0.00000     0.00  LINEAR    1.62258E-01  -122.99    0.00000E+00     0.00
  -16.00     2.00     -11.11 -999.99  -11.11    0.00000     0.00  LINEAR    1.43968E-01  -122.98    0.00000E+00     0.00
  -14.00     2.00     -12.29 -999.99  -12.29    0.00000     0.00  LINEAR    1.25760E-01  -122.97    0.00000E+00     0.00
  -12.00     2.00     -13.64 -999.99  -13.64    0.00000     0.00  LINEAR    1.07632E-01  -122.96    0.00000E+00     0.00
  -10.00     2.00     -15.24 -999.99  -15.24    0.00000     0.00  LINEAR    8.95748E-02  -122.95    0.00000E+00     0.00
   -8.00     2.00     -17.18 -999.99  -17.18    0.00000     0.00  LINEAR    7.15804E-02  -122.94    0.00000E+00     0.00
   -6.00     2.00     -19.69 -999.99  -19.69    0.00000     0.00  LINEAR    5.36381E-02  -122.94    0.00000E+00     0.00
   -4.00     2.00     -23.22 -999.99  -23.22    0.00000     0.00  LINEAR    3.57359E-02  -122.93    0.00000E+00     0.00
   -2.00     2.00     -29.24 -999.99  -29.24    0.00000     0.00  LINEAR    1.78610E-02  -122.93    0.00000E+00     0.00
    0.00     2.00    -999.99 -999.99 -999.99    0.00000     0.00            0.00000E+00     0.00    0.00000E+00     0.00
 -180.00     4.00    -999.99 -999.99 -999.99    0.00000     0.00            5.22197E-12    57.07    0.00000E+00     0.00
 -178.00     4.00     -29.24 -999.99  -29.24    0.00000     0.00  LINEAR    1.78610E-02  -122.93    0.00000E+00     0.00
 -176.00     4.00     -23.22 -999.99  -23.22    0.00000     0.00  LINEAR    3.57359E-02  -122.93    0.00000E+00     0.00
 -174.00     4.00     -19.69 -999.99  -19.69    0.00000     0.00  LINEAR    5.36381E-02  -122.94    0.00000E+00     0.00
 -172.00     4.00     -17.18 -999.99  -17.18    0.00000     0.00  LINEAR    7.15804E-02  -122.94    0.00000E+00     0.00
 -170.00     4.00     -15.24 -999.99  -15.24    0.00000     0.00  LINEAR    8.95748E-02  -122.95    0.00000E+00     0.00
 -168.00     4.00     -13.64 -999.99  -13.64    0.00000     0.00  LINEAR    1.07632E-01  -122.96    0.00000E+00     0.00
 -166.00     4.00     -12.29 -999.99  -12.29    0.00000     0.00  LINEAR    1.25760E-01  -122.97    0.00000E+00     0.00
 -164.00     4.00     -11.11 -999.99  -11.11    0.00000     0.00  LINEAR    1.43968E-01  -122.98    0.00000E+00     0.00
 -162.00     4.00     -10.08 -999.99  -10.08    0.00000     0.00  LINEAR    1.62258E-01  -122.99    0.00000E+00     0.00
 -160.00     4.00      -9.14 -999.99   -9.14    0.00000     0.00  LINEAR    1.80635E-01  -123.01    0.00000E+00     0.00
 -158.00     4.00      -8.30 -999.99   -8.30    0.00000     0.00  LINEAR    1.99098E-01  -123.02    0.00000E+00     0.00
 -156.00     4.00      -7.53 -999.99   -7.53    0.00000     0.00  LINEAR    2.17642E-01  -123.04    0.00000E+00     0.00
 -154.00     4.00      -6.81 -999.99   -6.81    0.00000     0.00  LINEAR    2.36263E-01  -123.06    0.00000E+00     0.00
 -152.00     4.00      -6.15 -999.99   -6.15    0.00000     0.00  LINEAR    2.54950E-01  -123.07    0.00000E+00     0.00
 -150.00     4.00      -5.53 -999.99   -5.53    0.00000     0.00  LINEAR    2.73689E-01  -123.09    0.00000E+00     0.00
 -148.00     4.00      -4.96 -999.99   -4.96    0.00000     0.00  LINEAR    2.92464E-01  -123.11    0.00000E+00     0.00
 -146.00     4.00      -4.42 -999.99   -4.42    0.00000     0.00  LINEAR    3.11254E-01  -123.13    0.00000E+00     0.00
 -144.00     4.00      -3.91 -999.99   -3.91    0.00000     0.00  LINEAR    3.30032E-01  -123.15    0.00000E+00     0.00
 -142.00     4.00      -3.43 -999.99   -3.43    0.00000     0.00  LINEAR    3.48772E-01  -123.17    0.00000E+00     0.00
 -140.00     4.00      -2.98 -999.99   -2.98    0.00000     0.00  LINEAR    3.67440E-01  -123.19    0.00000E+00     0.00
 -138.00     4.00      -2.55 -999.99   -2.55    0.00000     0.00  LINEAR    3.85999E-01  -123.21    0.00000E+00     0.00
 -136.00     4.00      -2.14 -999.99   -2.14    0.00000     0.00  LINEAR    4.04409E-01  -123.23    0.00000E+00     0.00
 -134.00     4.00      -1.76 -999.99   -1.76    0.00000     0.00  LINEAR    4.22627E-01  -123.25    0.00000E+00     0.00
 -132.00     4.00      -1.40 -999.99   -1.40    0.00000     0.00  LINEAR    4.40606E-01  -123.27    0.00000E+00     0.00
 -130.00     4.00      -1.06 -999.99   -1.06    0.00000     0.00  LINEAR    4.58294E-01  -123.29    0.00000E+00     0.00
 -128.00     4.00      -0.73 -999.99   -0.73    0.00000     0.00  LINEAR    4.75640E-01  -123.31    0.00000E+00     0.00
 -126.00     4.00      -0.43 -999.99   -0.43    0.00000     0.00  LINEAR    4.92587E-01  -123.33    0.00000E+00     0.00
 -124.00     4.00      -0.14 -999.99   -0.14    0.00000     0.00  LINEAR    5.09078E-01  -123.35    0.00000E+00     0.00
 -122.00     4.00       0.12 -999.99    0.12    0.00000     0.00  LINEAR    5.25054E-01  -123.37    0.00000E+00     0.00
 -120.00     4.00       0.38 -999.99    0.38    0.00000     0.00  LINEAR    5.40455E-01  -123.38    0.00000E+00     0.00
 -118.00     4.00       0.61 -999.99    0.61    0.00000     0.00  LINEAR    5.55221E-01  -123.40    0.00000E+00     0.00
 -116.00     4.00       0.83 -999.99    0.83    0.00000     0.00  LINEAR    5.69291E-01  -123.41    0.00000E+00     0.00
 -114.00     4.00       1.03 -999.99    1.03    0.00000     0.00  LINEAR    5.82605E-01  -123.43    0.00000E+00     0.00
 -112.00     4.00       1.21 -999.99    1.21    0.00000     0.00  LINEAR    5.95105E-01  -123.44    0.00000E+00     0.00
 -110.00     4.00       1.38 -999.99    1.38    0.00000     0.00  LINEAR    6.06733E-01  -123.45    0.00000E+00     0.00
 -108.00     4.00       1.53 -999.99    1.53    0.00000     0.00  LINEAR    6.17437E-01  -123.47    0.00000E+00     0.00
 -106.00     4.00       1.67 -999.99    1.67    0.00000     0.00  LINEAR    6.27164E-01  -123.48    0.00000E+00     0.00
 -104.00     4.00       1.79 -999.99    1.79    0.00000     0.00  LINEAR    6.35867E-01  -123.48    0.00000E+00     0.00
 -102.00     4.00       1.89 -999.99    1.89    0.00000     0.00  LINEAR    6.43502E-01  -123.49    0.00000E+00     0.00
 -100.00     4.00       1.98 -999.99    1.98    0.00000     0.00  LINEAR    6.50031E-01  -123.50    0.00000E+00     0.00
  -98.00     4.00       2.05 -999.99    2.05    0.00000     0.00  LINEAR    6.55421E-01  -123.50    0.00000E+00     0.00
  -96.00     4.00       2.11 -999.99    2.11    0.00000     0.00  LINEAR    6.59642E-01  -123.51    0.00000E+00     0.00
  -94.00     4.00       2.15 -999.99    2.15    0.00000     0.00  LINEAR    6.62673E-01  -123.51    0.00000E+00     0.00
  -92.00     4.00       2.17 -999.99    2.17    0.00000     0.00  LINEAR    6.64499E-01  -123.51    0.00000E+00     0.00
  -90.00     4.00       2.18 -999.99    2.18    0.00000     0.00  LINEAR    6.65108E-01  -123.51    0.00000E+00     0.00
  -88.00     4.00       2.17 -999.99    2.17    0.00000     0.00  LINEAR    6.64499E-01  -123.51    0.00000E+00     0.00
  -86.00     4.00       2.15 -999.99    2.15    0.00000     0.00  LINEAR    6.62673E-01  -123.51    0.00000E+00     0.00
  -84.00     4.00       2.11 -999.99    2.11    0.00000     0.00  LINEAR    6.59642E-01  -123.51    0.00000E+00     0.00
  -82.00     4.00       2.05 -999.99    2.05    0.00000     0.00  LINEAR    6.55421E-01  -123.50    0.00000E+00     0.00
  -80.00     4.00       1.98 -999.99    1.98    0.00000     0.00  LINEAR    6.50031E-01  -123.50    0.00000E+00     0.00
  -78.00     4.00       1.89 -999.99    1.89    0.00000     0.00  LINEAR    6.43502E-01  -123.49    0.00000E+00     0.00
  -76.00     4.00       1.79 -999.99    1.79    0.00000     0.00  LINEAR    6.35867E-01  -123.48    0.00000E+00     0.00
  -74.00     4.00       1.67 -999.99    1.67    0.00000     0.00  LINEAR    6.27164E-01  -123.48    0.00000E+00     0.00
  -72.00     4.00       1.53 -999.99    1.53    0.00000     0.00  LINEAR    6.17437E-01  -123.47    0.00000E+00     0.00
  -70.00     4.00       1.38 -999.99    1.38    0.00000     0.00  LINEAR    6.06733E-01  -123.45    0.00000E+00     0.00
  -68.00     4.00       1.21 -999.99    1.21    0.00000     0.00  LINEAR    5.95105E-01  -123.44    0.00000E+00     0.00
  -66.00     4.00       1.03 -999.99    1.03    0.00000     0.00  LINEAR    5.82605E-01  -123.43    0.00000E+00     0.00
  -64.00     4.00       0.83 -999.99    0.83    0.00000     0.00  LINEAR    5.69291E-01  -123.41    0.00000E+00     0.00
  -62.00     4.00       0.61 -999.99    0.61    0.00000     0.00  LINEAR    5.55221E-01  -123.40    0.00000E+00     0.00
  -60.00     4.00       0.38 -999.99    0.38    0.00000     0.00  LINEAR    5.40455E-01  -123.38    0.00000E+00     0.00
  -58.00     4.00       0.12 -999.99    0.12    0.00000     0.00  LINEAR    5.25054E-01  -123.37    0.00000E+00     0.00
  -56.00     4.00      -0.14 -999.99   -0.14    0.00000     0.00  LINEAR    5.09078E-01  -123.35    0.00000E+00     0.00
  -54.00     4.00      -0.43 -999.99   -0.43    0.00000     0.00  LINEAR    4.92587E-01  -123.33    0.00000E+00     0.00
  -52.00     4.00      -0.73 -999.99   -0.73    0.00000     0.00  LINEAR    4.75640E-01  -123.31    0.00000E+00     0.00
  -50.00     4.00      -1.06 -999.99   -1.06    0.00000     0.00  LINEAR    4.58294E-01  -123.29    0.00000E+00     0.00
  -48.00     4.00      -1.40 -999.99   -1.40    0.00000     0.00  LINEAR    4.40606E-01  -123.27    0.00000E+00     0.00
  -46.00     4.00      -1.76 -999.99   -1.76    0.00000     0.00  LINEAR    4.22627E-01  -123.25    0.00000E+00     0.00
  -44.00     4.00      -2.14 -999.99   -2.14    0.00000     0.00  LINEAR    4.04409E-01  -123.23    0.00000E+00     0.00
  -42.00     4.00      -2.55 -999.99   -2.55    0.00000     0.00  LINEAR    3.85999E-01  -123.21    0.00000E+00     0.00
  -40.00     4.00      -2.98 -999.99   -2.98    0.00000     0.00  LINEAR    3.67440E-01  -123.19    0.00000E+00     0.00
  -38.00     4.00      -3.43 -999.99   -3.43    0.00000     0.00  LINEAR    3.48772E-01  -123.17    0.00000E+00     0.00
  -36.00     4.00      -3.91 -999.99   -3.91    0.00000     0.00  LINEAR    3.30032E-01  -123.15    0.00000E+00     0.00
  -34.00     4.00      -4.42 -999.99   -4.42    0.00000     0.00  LINEAR    3.11254E-01  -123.13    0.00000E+00     0.00
  -32.00     4.00      -4.96 -999.99   -4.96    0.00000     0.00  LINEAR    2.92464E-01  -123.11    0.00000E+00     0.00
  -30.00     4.00      -5.53 -999.99   -5.53    0.00000     0.00  LINEAR    2.73689E-01  -123.09    0.00000E+00     0.00
  -28.00     4.00      -6.15 -999.99   -6.15    0.00000     0.00  LINEAR    2.54950E-01  -123.07    0.00000E+00     0.00
  -26.00     4.00      -6.81 -999.99   -6.81    0.00000     0.00  LINEAR    2.36263E-01  -123.06    0.00000E+00     0.00
  -24.00     4.00      -7.53 -999.99   -7.53    0.00000     0.00  LINEAR    2.17642E-01  -123.04    0.00000E+00     0.00
  -22.00     4.00      -8.30 -999.99   -8.30    0.00000     0.00  LINEAR    1.99098E-01  -123.02    0.00000E+00     0.00
  -20.00     4.00      -9.14 -999.99   -9.14    0.00000     0.00  LINEAR    1.80635E-01  -123.01    0.00000E+00     0.00
  -18.00     4.00     -10.08 -999.99  -10.08    0.00000     0.00  LINEAR    1.62258E-01  -122.99    0.00000E+00     0.00
  -16.00     4.00     -11.11 -999.99  -11.11    0.00000     0.00  LINEAR    1.43968E-01  -122.98    0.00000E+00     0.00
  -14.00     4.00     -12.29 -999.99  -12.29    0.00000     0.00  LINEAR    1.25760E-01  -122.97    0.00000E+00     0.00
  -12.00     4.00     -13.64 -999.99  -13.64    0.00000     0.00  LINEAR    1.07632E-01  -122.96    0.00000E+00     0.00
  -10.00     4.00     -15.24 -999.99  -15.24    0.00000     0.00  LINEAR    8.95748E-02  -122.95    0.00000E+00     0.00
   -8.00     4.00     -17.18 -999.99  -17.18    0.00000     0.00  LINEAR    7.15804E-02  -122.94    0.00000E+00     0.00
   -6.00     4.00     -19.69 -999.99  -19.69    0.00000     0.00  LINEAR    5.36381E-02  -122.94    0.00000E+00     0.00
   -4.00     4.00     -23.22 -999.99  -23.22    0.00000     0.00  LINEAR    3.57359E-02  -122.93    0.00000E+00     0.00
   -2.00     4.00     -29.24 -999.99  -29.24    0.00000     0.00  LINEAR    1.78610E-02  -122.93    0.00000E+00     0.00
    0.00     4.00    -999.99 -999.99 -999.99    0.00000     0.00            0.00000E+00     0.00    0.00000E+00     0.00
 -180.00     6.00    -999.99 -999.99 -999.99    0.00000     0.00            5.22197E-12    57.07    0.00000E+00     0.00
 -178.00     6.00     -29.24 -999.99  -29.24    0.00000     0.00  LINEAR    1.78610E-02  -122.93    0.00000E+00     0.00
 -176.00     6.00     -23.22 -999.99  -23.22    0.00000     0.00  LINEAR    3.57359E-02  -122.93    0.00000E+00     0.00
 -174.00     6.00     -19.69 -999.99  -19.69    0.00000     0.00  LINEAR    5.36381E-02  -122.94    0.00000E+00     0.00
 -172.00     6.00     -17.18 -999.99  -17.18    0.00000     0.00  LINEAR    7.15804E-02  -122.94    0.00000E+00     0.00
 -170.00     6.00     -15.24 -999.99  -15.24    0.00000     0.00  LINEAR    8.95748E-02  -122.95    0.00000E+00     0.00
 -168.00     6.00     -13.64 -999.99  -13.64    0.00000     0.00  LINEAR    1.07632E-01  -122.96    0.00000E+00     0.00
 -166.00     6.00     -12.29 -999.99  -12.29    0.00000     0.00  LINEAR    1.25760E-01  -122.97    0.00000E+00     0.00
 -164.00     6.00     -11.11 -999.99  -11.11    0.00000     0.00  LINEAR    1.43968E-01  -122.98    0.00000E+00     0.00
 -162.00     6.00     -10.08 -999.99  -10.08    0.00000     0.00  LINEAR    1.62258E-01  -122.99    0.00000E+00     0.00
 -160.00     6.00      -9.14 -999.99   -9.14    0.00000     0.00  LINEAR    1.80635E-01  -123.01    0.00000E+00     0.00
 -158.00     6.00      -8.30 -999.99   -8.30    0.00000     0.00  LINEAR    1.99098E-01  -123.02    0.00000E+00     0.00
 -156.00     6.00      -7.53 -999.99   -7.53    0.00000     0.00  LINEAR    2.17642E-01  -123.04    0.00000E+00     0.00
 -154.00     6.00      -6.81 -999.99   -6.81    0.00000     0.00  LINEAR    2.36263E-01  -123.06    0.00000E+00     0.00
 -152.00     6.00      -6.15 -999.99   -6.15    0.00000     0.00  LINEAR    2.54950E-01  -123.07    0.00000E+00     0.00
 -150.00     6.00      -5.53 -999.99   -5.53    0.00000     0.00  LINEAR    2.73689E-01  -123.09    0.00000E+00     0.00
 -148.00     6.00      -4.96 -999.99   -4.96    0.00000     0.00  LINEAR    2.92464E-01  -123.11    0.00000E+00     0.00
 -146.00     6.00      -4.42 -999.99   -4.42    0.00000     0.00  LINEAR    3.11254E-01  -123.13    0.00000E+00     0.00
 -144.00     6.00      -3.91 -999.99   -3.91    0.00000     0.00  LINEAR    3.30032E-01  -123.15    0.00000E+00     0.00
 -142.00     6.00      -3.43 -999.99   -3.43    0.00000     0.00  LINEAR    3.48772E-01  -123.17    0.00000E+00     0.00
 -140.00     6.00      -2.98 -999.99   -2.98    0.00000     0.00  LINEAR    3.67440E-01  -123.19    0.00000E+00     0.00
 -138.00     6.00      -2.55 -999.99   -2.55    0.00000     0.00  LINEAR    3.85999E-01  -123.21    0.00000E+00     0.00
 -136.00     6.00      -2.14 -999.99   -2.14    0.00000     0.00  LINEAR    4.04409E-01  -123.23    0.00000E+00     0.00
 -134.00     6.00      -1.76 -999.99   -1.76    0.00000     0.00  LINEAR    4.22627E-01  -123.25    0.00000E+00     0.00
 -132.00     6.00      -1.40 -999.99   -1.40    0.00000     0.00  LINEAR    4.40606E-01  -123.27    0.00000E+00     0.00
 -130.00     6.00      -1.06 -999.99   -1.06    0.00000     0.00  LINEAR    4.58294E-01  -123.29    0.00000E+00     0.00
 -128.00     6.00      -0.73 -999.99   -0.73    0.00000     0.00  LINEAR    4.75640E-01  -123.31    0.00000E+00     0.00
 -126.00     6.00      -0.43 -999.99   -0.43    0.00000     0.00  LINEAR    4.92587E-01  -123.33    0.00000E+00     0.00
 -124.00     6.00      -0.14 -999.99   -0.14    0.00000     0.00  LINEAR    5.09078E-01  -123.35    0.00000E+00     0.00
 -122.00     6.00       0.12 -999.99    0.12    0.00000     0.00  LINEAR    5.25054E-01  -123.37    0.00000E+00     0.00
 -120.00     6.00       0.38 -999.99    0.38    0.00000     0.00  LINEAR    5.40455E-01  -123.38    0.00000E+00     0.00
 -118.00     6.00       0.61 -999.99    0.61    0.00000     0.00  LINEAR    5.55221E-01  -123.40    0.00000E+00     0.00
 -116.00     6.00       0.83 -999.99    0.83    0.00000     0.00  LINEAR    5.69291E-01  -123.41    0.00000E+00     0.00
 -114.00     6.00       1.03 -999.99    1.03    0.00000     0.00  LINEAR    5.82605E-01  -123.43    0.00000E+00     0.00
 -112.00     6.00       1.21 -999.99    1.21    0.00000     0.00  LINEAR    5.95105E-01  -123.44    0.00000E+00     0.00
 -110.00     6.00       1.38 -999.99    1.38    0.00000     0.00  LINEAR    6.06733E-01  -123.45    0.00000E+00     0.00
 -108.00     6.00       1.53 -999.99    1.53    0.00000     0.00  LINEAR    6.17437E-01  -123.47    0.00000E+00     0.00
 -106.00     6.00       1.67 -999.99    1.67    0.00000     0.00  LINEAR    6.27164E-01  -123.48    0.00000E+00     0.00
 -104.00     6.00       1.79 -999.99    1.79    0.00000     0.00  LINEAR    6.35867E-01  -123.48    0.00000E+00     0.00
 -102.00     6.00       1.89 -999.99    1.89    0.00000     0.00  LINEAR    6.43502E-01  -123.49    0.00000E+00     0.00
 -100.00     6.00       1.98 -999.99    1.98    0.00000     0.00  LINEAR    6.50031E-01  -123.50    0.00000E+00     0.00
  -98.00     6.00       2.05 -999.99    2.05    0.00000     0.00  LINEAR    6.55421E-01  -123.50    0.00000E+00     0.00
  -96.00     6.00       2.11 -999.99    2.11    0.00000     0.00  LINEAR    6.59642E-01  -123.51    0.00000E+00     0.00
  -94.00     6.00       2.15 -999.99    2.15    0.00000     0.00  LINEAR    6.62673E-01  -123.51    0.00000E+00     0.00
  -92.00     6.00       2.17 -999.99    2.17    0.00000     0.00  LINEAR    6.64499E-01  -123.51    0.00000E+00     0.00
  -90.00     6.00       2.18 -999.99    2.18    0.00000     0.00  LINEAR    6.65108E-01  -123.51    0.00000E+00     0.00
  -88.00     6.00       2.17 -999.99    2.17    0.00000     0.00  LINEAR    6.64499E-01  -123.51    0.00000E+00     0.00
  -86.00     6.00       2.15 -999.99    2.15    0.00000     0.00  LINEAR    6.62673E-01  -123.51    0.00000E+00     0.00
  -84.00     6.00       2.11 -999.99    2.11    0.00000     0.00  LINEAR    6.59642E-01  -123.51    0.00000E+00     0.00
  -82.00     6.00       2.05 -999.99    2.05    0.00000     0.00  LINEAR    6.55421E-01  -123.50    0.00000E+00     0.00
  -80.00     6.00       1.98 -999.99    1.98    0.00000     0.00  LINEAR    6.50031E-01  -123.50    0.00000E+00     0.00
  -78.00     6.00       1.89 -999.99    1.89    0.00000     0.00  LINEAR    6.43502E-01  -123.49    0.00000E+00     0.00
  -76.00     6.00       1.79 -999.99    1.79    0.00000     0.00  LINEAR    6.35867E-01  -123.48    0.00000E+00     0.00
  -74.00     6.00       1.67 -999.99    1.67    0.00000     0.00  LINEAR    6.27164E-01  -123.48    0.00000E+00     0.00
  -72.00     6.00       1.53 -999.99    1.53    0.00000     0.00  LINEAR    6.17437E-01  -123.47    0.00000E+00     0.00
  -70.00     6.00       1.38 -999.99    1.38    0.00000     0.00  LINEAR    6.06733E-01  -123.45    0.00000E+00     0.00
  -68.00     6.00       1.21 -999.99    1.21    0.00000     0.00  LINEAR    5.95105E-01  -123.44    0.00000E+00     0.00
  -66.00     6.00       1.03 -999.99    1.03    0.00000     0.00  LINEAR    5.82605E-01  -123.43    0.00000E+00     0.00
  -64.00     6.00       0.83 -999.99    0.83    0.00000     0.00  LINEAR    5.69291E-01  -123.41    0.00000E+00     0.00
  -62.00     6.00       0.61 -999.99    0.61    0.00000     0.00  LINEAR    5.55221E-01  -123.40    0.00000E+00     0.00
  -60.00     6.00       0.38 -999.99    0.38    0.00000     0.00  LINEAR    5.40455E-01  -123.38    0.00000E+00     0.00
  -58.00     6.00       0.12 -999.99    0.12    0.00000     0.00  LINEAR    5.25054E-01  -123.37    0.00000E+00     0.00
  -56.00     6.00      -0.14 -999.99   -0.14    0.00000     0.00  LINEAR    5.09078E-01  -123.35    0.00000E+00     0.00
  -54.00     6.00      -0.43 -999.99   -0.43    0.00000     0.00  LINEAR    4.92587E-01  -123.33    0.00000E+00     0.00
  -52.00     6.00      -0.73 -999.99   -0.73    0.00000     0.00  LINEAR    4.75640E-01  -123.31    0.00000E+00     0.00
  -50.00     6.00      -1.06 -999.99   -1.06    0.00000     0.00  LINEAR    4.58294E-01  -123.29    0.00000E+00     0.00
  -48.00     6.00      -1.40 -999.99   -1.40    0.00000     0.00  LINEAR    4.40606E-01  -123.27    0.00000E+00     0.00
  -46.00     6.00      -1.76 -999.99   -1.76    0.00000     0.00  LINEAR    4.22627E-01  -123.25    0.00000E+00     0.00
  -44.00     6.00      -2.14 -999.99   -2.14    0.00000     0.00  LINEAR    4.04409E-01  -123.23    0.00000E+00     0.00
  -42.00     6.00      -2.55 -999.99   -2.55    0.00000     0.00  LINEAR    3.85999E-01  -123.21    0.00000E+00     0.00
  -40.00     6.00      -2.98 -999.99   -2.98    0.00000     0.00  LINEAR    3.67440E-01  -123.19    0.00000E+00     0.00
  -38.00     6.00      -3.43 -999.99   -3.43    0.00000     0.00  LINEAR    3.48772E-01  -123.17    0.00000E+00     0.00
  -36.00     6.00      -3.91 -999.99   -3.91    0.00000     0.00  LINEAR    3.30032E-01  -123.15    0.00000E+00     0.00
  -34.00     6.00      -4.42 -999.99   -4.42    0.00000     0.00  LINEAR    3.11254E-01  -123.13    0.00000E+00     0.00
  -32.00     6.00      -4.96 -999.99   -4.96    0.00000     0.00  LINEAR    2.92464E-01  -123.11    0.00000E+00     0.00
  -30.00     6.00      -5.53 -999.99   -5.53    0.00000     0.00  LINEAR    2.73689E-01  -123.09    0.00000E+00     0.00
  -28.00     6.00      -6.15 -999.99   -6.15    0.00000     0.00  LINEAR    2.54950E-01  -123.07    0.00000E+00     0.00
  -26.00     6.00      -6.81 -999.99   -6.81    0.00000     0.00  LINEAR    2.36263E-01  -123.06    0.00000E+00     0.00
  -24.00     6.00      -7.53 -999.99   -7.53    0.00000     0.00  LINEAR    2.17642E-01  -123.04    0.00000E+00     0.00
  -22.00     6.00      -8.30 -999.99   -8.30    0.00000     0.00  LINEAR    1.99098E-01  -123.02    0.00000E+00     0.00
  -20.00     6.00      -9.14 -999.99   -9.14    0.00000     0.00  LINEAR    1.80635E-01  -123.01    0.00000E+00     0.00
  -18.00     6.00     -10.08 -999.99  -10.08    0.00000     0.00  LINEAR    1.62258E-01  -122.99    0.00000E+00     0.00
  -16.00     6.00     -11.11 -999.99  -11.11    0.00000     0.00  LINEAR    1.43968E-01  -122.98    0.00000E+00     0.00
  -14.00     6.00     -12.29 -999.99  -12.29    0.00000     0.00  LINEAR    1.25760E-01  -122.97    0.00000E+00     0.00
  -12.00     6.00     -13.64 -999.99  -13.64    0.00000     0.00  LINEAR    1.07632E-01  -122.96    0.00000E+00     0.00
  -10.00     6.00     -15.24 -999.99  -15.24    0.00000     0.00  LINEAR    8.95748E-02  -122.95    0.00000E+00     0.00
   -8.00     6.00     -17.18 -999.99  -17.18    0.00000     0.00  LINEAR    7.15804E-02  -122.94    0.00000E+00     0.00
   -6.00     6.00     -19.69 -999.99  -19.69    0.00000     0.00  LINEAR    5.36381E-02  -122.94    0.00000E+00     0.00
   -4.00     6.00     -23.22 -999.99  -23.22    0.00000     0.00  LINEAR    3.57359E-02  -122.93    0.00000E+00     0.00
   -2.00     6.00     -29.24 -999.99  -29.24    0.00000     0.00  LINEAR    1.78610E-02  -122.93    0.00000E+00     0.00
    0.00     6.00    -999.99 -999.99 -999.99    0.00000     0.00            0.00000E+00     0.00    0.00000E+00     0.00
 -180.00     8.00    -999.99 -999.99 -999.99    0.00000     0.00            5.22197E-12    57.07    0.00000E+00     0.00
 -178.00     8.00     -29.24 -999.99  -29.24    0.00000     0.00  LINEAR    1.78610E-02  -122.93    0.00000E+00     0.00
 -176.00     8.00     -23.22 -999.99  -23.22    0.00000     0.00  LINEAR    3.57359E-02  -122.93    0.00000E+00     0.00
 -174.00     8.00     -19.69 -999.99  -19.69    0.00000     0.00  LINEAR    5.36381E-02  -122.94    0.00000E+00     0.00
 -172.00     8.00     -17.18 -999.99  -17.18    0.00000     0.00  LINEAR    7.15804E-02  -122.94    0.00000E+00     0.00
 -170.00     8.00     -15.24 -999.99  -15.24    0.00000     0.00  LINEAR    8.95748E-02  -122.95    0.00000E+00     0.00
 -168.00     8.00     -13.64 -999.99  -13.64    0.00000     0.00  LINEAR    1.07632E-01  -122.96    0.00000E+00     0.00
 -166.00     8.00     -12.29 -999.99  -12.29    0.00000     0.00  LINEAR    1.25760E-01  -122.97    0.00000E+00     0.00
 -164.00     8.00     -11.11 -999.99  -11.11    0.00000     0.00  LINEAR    1.43968E-01  -122.98    0.00000E+00     0.00
 -162.00     8.00     -10.08 -999.99  -10.08    0.00000     0.00  LINEAR    1.62258E-01  -122.99    0.00000E+00     0.00
 -160.00     8.00      -9.14 -999.99   -9.14    0.00000     0.00  LINEAR    1.80635E-01  -123.01    0.00000E+00     0.00
 -158.00     8.00      -8.30 -999.99   -8.30    0.00000     0.00  LINEAR    1.99098E-01  -123.02    0.00000E+00     0.00
 -156.00     8.00      -7.53 -999.99   -7.53    0.00000     0.00  LINEAR    2.17642E-01  -123.04    0.00000E+00     0.00
 -154.00     8.00      -6.81 -999.99   -6.81    0.00000     0.00  LINEAR    2.36263E-01  -123.06    0.00000E+00     0.00
 -152.00     8.00      -6.15 -999.99   -6.15    0.00000     0.00  LINEAR    2.54950E-01  -123.07    0.00000E+00     0.00
 -150.00     8.00      -5.53 -999.99   -5.53    0.00000     0.00  LINEAR    2.73689E-01  -123.09    0.00000E+00     0.00
 -148.00     8.00      -4.96 -999.99   -4.96    0.00000     0.00  LINEAR    2.92464E-01  -123.11    0.00000E+00     0.00
 -146.00     8.00      -4.42 -999.99   -4.42    0.00000     0.00  LINEAR    3.11254E-01  -123.13    0.00000E+00     0.00
 -144.00     8.00      -3.91 -999.99   -3.91    0.00000     0.00  LINEAR    3.30032E-01  -123.15    0.00000E+00     0.00
 -142.00     8.00      -3.43 -999.99   -3.43    0.00000     0.00  LINEAR    3.48772E-01  -123.17    0.00000E+00     0.00
 -140.00     8.00      -2.98 -999.99   -2.98    0.00000     0.00  LINEAR    3.67440E-01  -123.19    0.00000E+00     0.00
 -138.00     8.00      -2.55 -999.99   -2.55    0.00000     0.00  LINEAR    3.85999E-01  -123.21    0.00000E+00     0.00
 -136.00     8.00      -2.14 -999.99   -2.14    0.00000     0.00  LINEAR    4.04409E-01  -123.23    0.00000E+00     0.00
 -134.00     8.00      -1.76 -999.99   -1.76    0.00000     0.00  LINEAR    4.22627E-01  -123.25    0.00000E+00     0.00
 -132.00     8.00      -1.40 -999.99   -1.40    0.00000     0.00  LINEAR    4.40606E-01  -123.27    0.00000E+00     0.00
 -130.00     8.00      -1.06 -999.99   -1.06    0.00000     0.00  LINEAR    4.58294E-01  -123.29    0.00000E+00     0.00
 -128.00     8.00      -0.73 -999.99   -0.73    0.00000     0.00  LINEAR    4.75640E-01  -123.31    0.00000E+00     0.00
 -126.00     8.00      -0.43 -999.99   -0.43    0.00000     0.00  LINEAR    4.92587E-01  -123.33    0.00000E+00     0.00
 -124.00     8.00      -0.14 -999.99   -0.14    0.00000     0.00  LINEAR    5.09078E-01  -123.35    0.00000E+00     0.00
 -122.00     8.00       0.12 -999.99    0.12    0.00000     0.00  LINEAR    5.25054E-01  -123.37    0.00000E+00     0.00
 -120.00     8.00       0.38 -999.99    0.38    0.00000     0.00  LINEAR    5.40455E-01  -123.38    0.00000E+00     0.00
 -118.00     8.00       0.61 -999.99    0.61    0.00000     0.00  LINEAR    5.55221E-01  -123.40    0.00000E+00     0.00
 -116.00     8.00       0.83 -999.99    0.83    0.00000     0.00  LINEAR    5.69291E-01  -123.41    0.00000E+00     0.00
 -114.00     8.00       1.03 -999.99    1.03    0.00000     0.00  LINEAR    5.82605E-01  -123.43    0.00000E+00     0.00
 -112.00     8.00       1.21 -999.99    1.21    0.00000     0.00  LINEAR    5.95105E-01  -123.44    0.00000E+00     0.00
 -110.00     8.00       1.38 -999.99    1.38    0.00000     0.00  LINEAR    6.06733E-01  -123.45    0.00000E+00     0.00
 -108.00     8.00       1.53 -999.99    1.53    0.00000     0.00  LINEAR    6.17437E-01  -123.47    0.00000E+00     0.00
 -106.00     8.00       1.67 -999.99    1.67    0.00000     0.00  LINEAR    6.27164E-01  -123.48    0.00000E+00     0.00
 -104.00     8.00       1.79 -999.99    1.79    0.00000     0.00  LINEAR    6.35867E-01  -123.48    0.00000E+00     0.00
 -102.00     8.00       1.89 -999.99    1.89    0.00000     0.00  LINEAR    6.43502E-01  -123.49    0.00000E+00     0.00
 -100.00     8.00       1.98 -999.99    1.98    0.00000     0.00  LINEAR    6.50031E-01  -123.50    0.00000E+00     0.00
  -98.00     8.00       2.05 -999.99    2.05    0.00000     0.00  LINEAR    6.55421E-01  -123.50    0.00000E+00     0.00
  -96.00     8.00       2.11 -999.99    2.11    0.00000     0.00  LINEAR    6.59642E-01  -123.51    0.00000E+00     0.00
  -94.00     8.00       2.15 -999.99    2.15    0.00000     0.00  LINEAR    6.62673E-01  -123.51    0.00000E+00     0.00
  -92.00     8.00       2.17 -999.99    2.17    0.00000     0.00  LINEAR    6.64499E-01  -123.51    0.00000E+00     0.00
  -90.00     8.00       2.18 -999.99    2.18    0.00000     0.00  LINEAR    6.65108E-01  -123.51    0.00000E+00     0.00
  -88.00     8.00       2.17 -999.99    2.17    0.00000     0.00  LINEAR    6.64499E-01  -123.51    0.00000E+00     0.00
  -86.00     8.00       2.15 -999.99    2.15    0.00000     0.00  LINEAR    6.62673E-01  -123.51    0.00000E+00     0.00
  -84.00     8.00       2.11 -999.99    2.11    0.00000     0.00  LINEAR    6.59642E-01  -123.51    0.00000E+00     0.00
  -82.00     8.00       2.05 -999.99    2.05    0.00000     0.00  LINEAR    6.55421E-01  -123.50    0.00000E+00     0.00
  -80.00     8.00       1.98 -999.99    1.98    0.00000     0.00  LINEAR    6.50031E-01  -123.50    0.00000E+00     0.00
  -78.00     8.00       1.89 -999.99    1.89    0.00000     0.00  LINEAR    6.43502E-01  -123.49    0.00000E+00     0.00
  -76.00     8.00       1.79 -999.99    1.79    0.00000     0.00  LINEAR    6.35867E-01  -123.48    0.00000E+00     0.00
  -74.00     8.00       1.67 -999.99    1.67    0.00000     0.00  LINEAR    6.27164E-01  -123.48    0.00000E+00     0.00
  -72.00     8.00       1.53 -999.99    1.53    0.00000     0.00  LINEAR    6.17437E-01  -123.47    0.00000E+00     0.00
  -70.00     8.00       1.38 -999.99    1.38    0.00000     0.00  LINEAR    6.06733E-01  -123.45    0.00000E+00     0.00
  -68.00     8.00       1.21 -999.99    1.21    0.00000     0.00  LINEAR    5.95105E-01  -123.44    0.00000E+00     0.00
  -66.00     8.00       1.03 -999.99    1.03    0.00000     0.00  LINEAR    5.82605E-01  -123.43    0.00000E+00     0.00
  -64.00     8.00       0.83 -999.99    0.83    0.00000     0.00  LINEAR    5.69291E-01  -123.41    0.00000E+00     0.00
  -62.00     8.00       0.61 -999.99    0.61    0.00000     0.00  LINEAR    5.55221E-01  -123.40    0.00000E+00     0.00
  -60.00     8.00       0.38 -999.99    0.38    0.00000     0.00  LINEAR    5.40455E-01  -123.38    0.00000E+00     0.00
  -58.00     8.00       0.12 -999.99    0.12    0.00000     0.00  LINEAR    5.25054E-01  -123.37    0.00000E+00     0.00
  -56.00     8.00      -0.14 -999.99   -0.14    0.00000     0.00  LINEAR    5.09078E-01  -123.35    0.00000E+00     0.00
  -54.00     8.00      -0.43 -999.99   -0.43    0.00000     0.00  LINEAR    4.92587E-01  -123.33    0.00000E+00     0.00
  -52.00     8.00      -0.73 -999.99   -0.73    0.00000     0.00  LINEAR    4.75640E-01  -123.31    0.00000E+00     0.00
  -50.00     8.00      -1.06 -999.99   -1.06    0.00000     0.00  LINEAR    4.58294E-01  -123.29    0.00000E+00     0.00
  -48.00     8.00      -1.40 -999.99   -1.40    0.00000     0.00  LINEAR    4.40606E-01  -123.27    0.00000E+00     0.00
  -46.00     8.00      -1.76 -999.99   -1.76    0.00000     0.00  LINEAR    4.22627E-01  -123.25    0.00000E+00     0.00
  -44.00     8.00      -2.14 -999.99   -2.14    0.00000     0.00  LINEAR    4.04409E-01  -123.23    0.00000E+00     0.00
  -42.00     8.00      -2.55 -999.99   -2.55    0.00000     0.00  LINEAR    3.85999E-01  -123.21    0.00000E+00     0.00
  -40.00     8.00      -2.98 -999.99   -2.98    0.00000     0.00  LINEAR    3.67440E-01  -123.19    0.00000E+00     0.00
  -38.00     8.00      -3.43 -999.99   -3.43    0.00000     0.00  LINEAR    3.48772E-01  -123.17    0.00000E+00     0.00
  -36.00     8.00      -3.91 -999.99   -3.91    0.00000     0.00  LINEAR    3.30032E-01  -123.15    0.00000E+00     0.00
  -34.00     8.00      -4.42 -999.99   -4.42    0.00000     0.00  LINEAR    3.11254E-01  -123.13    0.00000E+00     0.00
  -32.00     8.00      -4.96 -999.99   -4.96    0.00000     0.00  LINEAR    2.92464E-01  -123.11    0.00000E+00     0.00
  -30.00     8.00      -5.53 -999.99   -5.53    0.00000     0.00  LINEAR    2.73689E-01  -123.09    0.00000E+00     0.00
  -28.00     8.00      -6.15 -999.99   -6.15    0.00000     0.00  LINEAR    2.54950E-01  -123.07    0.00000E+00     0.00
  -26.00     8.00      -6.81 -999.99   -6.81    0.00000     0.00  LINEAR    2.36263E-01  -123.06    0.00000E+00     0.00
  -24.00     8.00      -7.53 -999.99   -7.53    0.00000     0.00  LINEAR    2.17642E-01  -123.04    0.00000E+00     0.00
  -22.00     8.00      -8.30 -999.99   -8.30    0.00000     0.00  LINEAR    1.99098E-01  -123.02    0.00000E+00     0.00
  -20.00     8.00      -9.14 -999.99   -9.14    0.00000     0.00  LINEAR    1.80635E-01  -123.01    0.00000E+00     0.00
  -18.00     8.00     -10.08 -999.99  -10.08    0.00000     0.00  LINEAR    1.62258E-01  -122.99    0.00000E+00     0.00
  -16.00     8.00     -11.11 -999.99  -11.11    0.00000     0.00  LINEAR    1.43968E-01  -122.98    0.00000E+00     0.00
  -14.00     8.00     -12.29 -999.99  -12.29    0.00000     0.00  LINEAR    1.25760E-01  -122.97    0.00000E+00     0.00
  -12.00     8.00     -13.64 -999.99  -13.64    0.00000     0.00  LINEAR    1.07632E-01  -122.96    0.00000E+00     0.00
  -10.00     8.00     -15.24 -999.99  -15.24    0.00000     0.00  LINEAR    8.95748E-02  -122.95    0.00000E+00     0.00
   -8.00     8.00     -17.18 -999.99  -17.18    0.00000     0.00  LINEAR    7.15804E-02  -122.94    0.00000E+00     0.00
   -6.00     8.00     -19.69 -999.99  -19.69    0.00000     0.00  LINEAR    5.36381E-02  -122.94    0.00000E+00     0.00
   -4.00     8.00     -23.22 -999.99  -23.22    0.00000     0.00  LINEAR    3.57359E-02  -122.93    0.00000E+00     0.00
   -2.00     8.00     -29.24 -999.99  -29.24    0.00000     0.00  LINEAR    1.78610E-02  -122.93    0.00000E+00     0.00
    0.00     8.00    -999.99 -999.99 -999.99    0.00000     0.00            0.00000E+00     0.00    0.00000E+00     0.00
 -180.00    10.00    -999.99 -999.99 -999.99    0.00000     0.00            5.22197E-12    57.07    0.00000E+00     0.00
 -178.00    10.00     -29.24 -999.99  -29.24    0.00000     0.00  LINEAR    1.78610E-02  -122.93    0.00000E+00     0.00
 -176.00    10.00     -23.22 -999.99  -23.22    0.00000     0.00  LINEAR    3.57359E-02  -122.93    0.00000E+00     0.00
 -174.00    10.00     -19.69 -999.99  -19.69    0.00000     0.00  LINEAR    5.36381E-02  -122.94    0.00000E+00     0.00
 -172.00    10.00     -17.18 -999.99  -17.18    0.00000     0.00  LINEAR    7.15804E-02  -122.94    0.00000E+00     0.00
 -170.00    10.00     -15.24 -999.99  -15.24    0.00000     0.00  LINEAR    8.95748E-02  -122.95    0.00000E+00     0.00
 -168.00    10.00     -13.64 -999.99  -13.64    0.00000     0.00  LINEAR    1.07632E-01  -122.96    0.00000E+00     0.00
 -166.00    10.00     -12.29 -999.99  -12.29    0.00000     0.00  LINEAR    1.25760E-01  -122.97    0.00000E+00     0.00
 -164.00    10.00     -11.11 -999.99  -11.11    0.00000     0.00  LINEAR    1.43968E-01  -122.98    0.00000E+00     0.00
 -162.00    10.00     -10.08 -999.99  -10.08    0.00000     0.00  LINEAR    1.62258E-01  -122.99    0.00000E+00     0.00
 -160.00    10.00      -9.14 -999.99   -9.14    0.00000     0.00  LINEAR    1.80635E-01  -123.01    0.00000E+00     0.00
 -158.00    10.00      -8.30 -999.99   -8.30    0.00000     0.00  LINEAR    1.99098E-01  -123.02    0.00000E+00     0.00
 -156.00    10.00      -7.53 -999.99   -7.53    0.00000     0.00  LINEAR    2.17642E-01  -123.04    0.00000E+00     0.00
 -154.00    10.00      -6.81 -999.99   -6.81    0.00000     0.00  LINEAR    2.36263E-01  -123.06    0.00000E+00     0.00
 -152.00    10.00      -6.15 -999.99   -6.15    0.00000     0.00  LINEAR    2.54950E-01  -123.07    0.00000E+00     0.00
 -150.00    10.00      -5.53 -999.99   -5.53    0.00000     0.00  LINEAR    2.73689E-01  -123.09    0.00000E+00     0.00
 -148.00    10.00      -4.96 -999.99   -4.96    0.00000     0.00  LINEAR    2.92464E-01  -123.11    0.00000E+00     0.00
 -146.00    10.00      -4.42 -999.99   -4.42    0.00000     0.00  LINEAR    3.11254E-01  -123.13    0.00000E+00     0.00
 -144.00    10.00      -3.91 -999.99   -3.91    0.00000     0.00  LINEAR    3.30032E-01  -123.15    0.00000E+00     0.00
 -142.00    10.00      -3.43 -999.99   -3.43    0.00000     0.00  LINEAR    3.48772E-01  -123.17    0.00000E+00     0.00
 -140.00    10.00      -2.98 -999.99   -2.98    0.00000     0.00  LINEAR    3.67440E-01  -123.19    0.00000E+00     0.00
 -138.00    10.00      -2.55 -999.99   -2.55    0.00000     0.00  LINEAR    3.85999E-01  -123.21    0.00000E+00     0.00
 -136.00    10.00      -2.14 -999.99   -2.14    0.00000     0.00  LINEAR    4.04409E-01  -123.23    0.00000E+00     0.00
 -134.00    10.00      -1.76 -999.99   -1.76    0.00000     0.00  LINEAR    4.22627E-01  -123.25    0.00000E+00     0.00
 -132.00    10.00      -1.40 -999.99   -1.40    0.00000     0.00  LINEAR    4.40606E-01  -123.27    0.00000E+00     0.00
 -130.00    10.00      -1.06 -999.99   -1.06    0.00000     0.00  LINEAR    4.58294E-01  -123.29    0.00000E+00     0.00
 -128.00    10.00      -0.73 -999.99   -0.73    0.00000     0.00  LINEAR    4.75640E-01  -123.31    0.00000E+00     0.00
 -126.00    10.00      -0.43 -999.99   -0.43    0.00000     0.00  LINEAR    4.92587E-01  -123.33    0.00000E+00     0.00
 -124.00    10.00      -0.14 -999.99   -0.14    0.00000     0.00  LINEAR    5.09078E-01  -123.35    0.00000E+00     0.00
 -122.00    10.00       0.12 -999.99    0.12    0.00000     0.00  LINEAR    5.25054E-01  -123.37    0.00000E+00     0.00
 -120.00    10.00       0.38 -999.99    0.38    0.00000     0.00  LINEAR    5.40455E-01  -123.38    0.00000E+00     0.00
 -118.00    10.00       0.61 -999.99    0.61    0.00000     0.00  LINEAR    5.55221E-01  -123.40    0.00000E+00     0.00
 -116.00    10.00       0.83 -999.99    0.83    0.00000     0.00  LINEAR    5.69291E-01  -123.41    0.00000E+00     0.00
 -114.00    10.00       1.03 -999.99    1.03    0.00000     0.00  LINEAR    5.82605E-01  -123.43    0.00000E+00     0.00
 -112.00    10.00       1.21 -999.99    1.21    0.00000     0.00  LINEAR    5.95105E-01  -123.44    0.00000E+00     0.00
 -110.00    10.00       1.38 -999.99    1.38    0.00000     0.00  LINEAR    6.06733E-01  -123.45    0.00000E+00     0.00
 -108.00    10.00       1.53 -999.99    1.53    0.00000     0.00  LINEAR    6.17437E-01  -123.47    0.00000E+00     0.00
 -106.00    10.00       1.67 -999.99    1.67    0.00000     0.00  LINEAR    6.27164E-01  -123.48    0.00000E+00     0.00
 -104.00    10.00       1.79 -999.99    1.79    0.00000     0.00  LINEAR    6.35867E-01  -123.48    0.00000E+00     0.00
 -102.00    10.00       1.89 -999.99    1.89    0.00000     0.00  LINEAR    6.43502E-01  -123.49    0.00000E+00     0.00
 -100.00    10.00       1.98 -999.99    1.98    0.00000     0.00  LINEAR    6.50031E-01  -123.50    0.00000E+00     0.00
  -98.00    10.00       2.05 -999.99    2.05    0.00000     0.00  LINEAR    6.55421E-01  -123.50    0.00000E+00     0.00
  -96.00    10.00       2.11 -999.99    2.11    0.00000     0.00  LINEAR    6.59642E-01  -123.51    0.00000E+00     0.00
  -94.00    10.00       2.15 -999.99    2.15    0.00000     0.00  LINEAR    6.62673E-01  -123.51    0.00000E+00     0.00
  -92.00    10.00       2.17 -999.99    2.17    0.00000     0.00  LINEAR    6.64499E-01  -123.51    0.00000E+00     0.00
  -90.00    10.00       2.18 -999.99    2.18    0.00000     0.00  LINEAR    6.65108E-01  -123.51    0.00000E+00     0.00
  -88.00    10.00       2.17 -999.99    2.17    0.00000     0.00  LINEAR    6.64499E-01  -123.51    0.00000E+00     0.00
  -86.00    10.00       2.15 -999.99    2.15    0.00000     0.00  LINEAR    6.62673E-01  -123.51    0.00000E+00     0.00
  -84.00    10.00       2.11 -999.99    2.11    0.00000     0.00  LINEAR    6.59642E-01  -123.51    0.00000E+00     0.00
  -82.00    10.00       2.05 -999.99    2.05    0.00000     0.00  LINEAR    6.55421E-01  -123.50    0.00000E+00     0.00
  -80.00    10.00       1.98 -999.99    1.98    0.00000     0.00  LINEAR    6.50031E-01  -123.50    0.00000E+00     0.00
  -78.00    10.00       1.89 -999.99    1.89    0.00000     0.00  LINEAR    6.43502E-01  -123.49    0.00000E+00     0.00
  -76.00    10.00       1.79 -999.99    1.79    0.00000     0.00  LINEAR    6.35867E-01  -123.48    0.00000E+00     0.00
  -74.00    10.00       1.67 -999.99    1.67    0.00000     0.00  LINEAR    6.27164E-01  -123.48    0.00000E+00     0.00
  -72.00    10.00       1.53 -999.99    1.53    0.00000     0.00  LINEAR    6.17437E-01  -123.47    0.00000E+00     0.00
  -70.00    10.00       1.38 -999.99    1.38    0.00000     0.00  LINEAR    6.06733E-01  -123.45    0.00000E+00     0.00
  -68.00    10.00       1.21 -999.99    1.21    0.00000     0.00  LINEAR    5.95105E-01  -123.44    0.00000E+00     0.00
  -66.00    10.00       1.03 -999.99    1.03    0.00000     0.00  LINEAR    5.82605E-01  -123.43    0.00000E+00     0.00
  -64.00    10.00       0.83 -999.99    0.83    0.00000     0.00  LINEAR    5.69291E-01  -123.41    0.00000E+00     0.00
  -62.00    10.00       0.61 -999.99    0.61    0.00000     0.00  LINEAR    5.55221E-01  -123.40    0.00000E+00     0.00
  -60.00    10.00       0.38 -999.99    0.38    0.00000     0.00  LINEAR    5.40455E-01  -123.38    0.00000E+00     0.00
  -58.00    10.00       0.12 -999.99    0.12    0.00000     0.00  LINEAR    5.25054E-01  -123.37    0.00000E+00     0.00
  -56.00    10.00      -0.14 -999.99   -0.14    0.00000     0.00  LINEAR    5.09078E-01  -123.35    0.00000E+00     0.00
  -54.00    10.00      -0.43 -999.99   -0.43    0.00000     0.00  LINEAR    4.92587E-01  -123.33    0.00000E+00     0.00
  -52.00    10.00      -0.73 -999.99   -0.73    0.00000     0.00  LINEAR    4.75640E-01  -123.31    0.00000E+00     0.00
  -50.00    10.00      -1.06 -999.99   -1.06    0.00000     0.00  LINEAR    4.58294E-01  -123.29    0.00000E+00     0.00
  -48.00    10.00      -1.40 -999.99   -1.40    0.00000     0.00  LINEAR    4.40606E-01  -123.27    0.00000E+00     0.00
  -46.00    10.00      -1.76 -999.99   -1.76    0.00000     0.00  LINEAR    4.22627E-01  -123.25    0.00000E+00     0.00
  -44.00    10.00      -2.14 -999.99   -2.14    0.00000     0.00  LINEAR    4.04409E-01  -123.23    0.00000E+00     0.00
  -42.00    10.00      -2.55 -999.99   -2.55    0.00000     0.00  LINEAR    3.85999E-01  -123.21    0.00000E+00     0.00
  -40.00    10.00      -2.98 -999.99   -2.98    0.00000     0.00  LINEAR    3.67440E-01  -123.19    0.00000E+00     0.00
  -38.00    10.00      -3.43 -999.99   -3.43    0.00000     0.00  LINEAR    3.48772E-01  -123.17    0.00000E+00     0.00
  -36.00    10.00      -3.91 -999.99   -3.91    0.00000     0.00  LINEAR    3.30032E-01  -123.15    0.00000E+00     0.00
  -34.00    10.00      -4.42 -999.99   -4.42    0.00000     0.00  LINEAR    3.11254E-01  -123.13    0.00000E+00     0.00
  -32.00    10.00      -4.96 -999.99   -4.96    0.00000     0.00  LINEAR    2.92464E-01  -123.11    0.00000E+00     0.00
  -30.00    10.00      -5.53 -999.99   -5.53    0.00000     0.00  LINEAR    2.73689E-01  -123.09    0.00000E+00     0.00
  -28.00    10.00      -6.15 -999.99   -6.15    0.00000     0.00  LINEAR    2.54950E-01  -123.07    0.00000E+00     0.00
  -26.00    10.00      -6.81 -999.99   -6.81    0.00000     0.00  LINEAR    2.36263E-01  -123.06    0.00000E+00     0.00
  -24.00    10.00      -7.53 -999.99   -7.53    0.00000     0.00  LINEAR    2.17642E-01  -123.04    0.00000E+00     0.00
  -22.00    10.00      -8.30 -999.99   -8.30    0.00000     0.00  LINEAR    1.99098E-01  -123.02    0.00000E+00     0.00
  -20.00    10.00      -9.14 -999.99   -9.14    0.00000     0.00  LINEAR    1.80635E-01  -123.01    0.00000E+00     0.00
  -18.00    10.00     -10.08 -999.99  -10.08    0.00000     0.00  LINEAR    1.62258E-01  -122.99    0.00000E+00     0.00
  -16.00    10.00     -11.11 -999.99  -11.11    0.00000     0.00  LINEAR    1.43968E-01  -122.98    0.00000E+00     0.00
  -14.00    10.00     -12.29 -999.99  -12.29    0.00000     0.00  LINEAR    1.25760E-01  -122.97    0.00000E+00     0.00
  -12.00    10.00     -13.64 -999.99  -13.64    0.00000     0.00  LINEAR    1.07632E-01  -122.96    0.00000E+00     0.00
  -10.00    10.00     -15.24 -999.99  -15.24    0.00000     0.00  LINEAR    8.95748E-02  -122.95    0.00000E+00     0.00
   -8.00    10.00     -17.18 -999.99  -17.18    0.00000     0.00  LINEAR    7.15804E-02  -122.94    0.00000E+00     0.00
   -6.00    10.00     -19.69 -999.99  -19.69    0.00000     0.00  LINEAR    5.36381E-02  -122.94    0.00000E+00     0.00
   -4.00    10.00     -23.22 -999.99  -23.22    0.00000     0.00  LINEAR    3.57359E-02  -122.93    0.00000E+00     0.00
   -2.00    10.00     -29.24 -999.99  -29.24    0.00000     0.00  LINEAR    1.78610E-02  -122.93    0.00000E+00     0.00
    0.00    10.00    -999.99 -999.99 -999.99    0.00000     0.00            0.00000E+00     0.00    0.00000E+00     0.00
 -180.00    12.00    -999.99 -999.99 -999.99    0.00000     0.00            5.22197E-12    57.07    0.00000E+00     0.00
 -178.00    12.00     -29.24 -999.99  -29.24    0.00000     0.00  LINEAR    1.78610E-02  -122.93    0.00000E+00     0.00
 -176.00    12.00     -23.22 -999.99  -23.22    0.00000     0.00  LINEAR    3.57359E-02  -122.93    0.00000E+00     0.00
 -174.00    12.00     -19.69 -999.99  -19.69    0.00000     0.00  LINEAR    5.36381E-02  -122.94    0.00000E+00     0.00
 -172.00    12.00     -17.18 -999.99  -17.18    0.00000     0.00  LINEAR    7.15804E-02  -122.94    0.00000E+00     0.00
 -170.00    12.00     -15.24 -999.99  -15.24    0.00000     0.00  LINEAR    8.95748E-02  -122.95    0.00000E+00     0.00
 -168.00    12.00     -13.64 -999.99  -13.64    0.00000     0.00  LINEAR    1.07632E-01  -122.96    0.00000E+00     0.00
 -166.00    12.00     -12.29 -999.99  -12.29    0.00000     0.00  LINEAR    1.25760E-01  -122.97    0.00000E+00     0.00
 -164.00    12.00     -11.11 -999.99  -11.11    0.00000     0.00  LINEAR    1.43968E-01  -122.98    0.00000E+00     0.00
 -162.00    12.00     -10.08 -999.99  -10.08    0.00000     0.00  LINEAR    1.62258E-01  -122.99    0.00000E+00     0.00
 -160.00    12.00      -9.14 -999.99   -9.14    0.00000     0.00  LINEAR    1.80635E-01  -123.01    0.00000E+00     0.00
 -158.00    12.00      -8.30 -999.99   -8.30    0.00000     0.00  LINEAR    1.99098E-01  -123.02    0.00000E+00     0.00
 -156.00    12.00      -7.53 -999.99   -7.53    0.00000     0.00  LINEAR    2.17642E-01  -123.04    0.00000E+00     0.00
 -154.00    12.00      -6.81 -999.99   -6.81    0.00000     0.00  LINEAR    2.36263E-01  -123.06    0.00000E+00     0.00
 -152.00    12.00      -6.15 -999.99   -6.15    0.00000     0.00  LINEAR    2.54950E-01  -123.07    0.00000E+00     0.00
 -150.00    12.00      -5.53 -999.99   -5.53    0.00000     0.00  LINEAR    2.73689E-01  -123.09    0.00000E+00     0.00
 -148.00    12.00      -4.96 -999.99   -4.96    0.00000     0.00  LINEAR    2.92464E-01  -123.11    0.00000E+00     0.00
 -146.00    12.00      -4.42 -999.99   -4.42    0.00000     0.00  LINEAR    3.11254E-01  -123.13    0.00000E+00     0.00
 -144.00    12.00      -3.91 -999.99   -3.91    0.00000     0.00  LINEAR    3.30032E-01  -123.15    0.00000E+00     0.00
 -142.00    12.00      -3.43 -999.99   -3.43    0.00000     0.00  LINEAR    3.48772E-01  -123.17    0.00000E+00     0.00
 -140.00    12.00      -2.98 -999.99   -2.98    0.00000     0.00  LINEAR    3.67440E-01  -123.19    0.00000E+00     0.00
 -138.00    12.00      -2.55 -999.99   -2.55    0.00000     0.00  LINEAR    3.85999E-01  -123.21    0.00000E+00     0.00
 -136.00    12.00      -2.14 -999.99   -2.14    0.00000     0.00  LINEAR    4.04409E-01  -123.23    0.00000E+00     0.00
 -134.00    12.00      -1.76 -999.99   -1.76    0.00000     0.00  LINEAR    4.22627E-01  -123.25    0.00000E+00     0.00
 -132.00    12.00      -1.40 -999.99   -1.40    0.00000     0.00  LINEAR    4.40606E-01  -123.27    0.00000E+00     0.00
 -130.00    12.00      -1.06 -999.99   -1.06    0.00000     0.00  LINEAR    4.58294E-01  -123.29    0.00000E+00     0.00
 -128.00    12.00      -0.73 -999.99   -0.73    0.00000     0.00  LINEAR    4.75640E-01  -123.31    0.00000E+00     0.00
 -126.00    12.00      -0.43 -999.99   -0.43    0.00000     0.00  LINEAR    4.92587E-01  -123.33    0.00000E+00     0.00
 -124.00    12.00      -0.14 -999.99   -0.14    0.00000     0.00  LINEAR    5.09078E-01  -123.35    0.00000E+00     0.00
 -122.00    12.00       0.12 -999.99    0.12    0.00000     0.00  LINEAR    5.25054E-01  -123.37    0.00000E+00     0.00
 -120.00    12.00       0.38 -999.99    0.38    0.00000     0.00  LINEAR    5.40455E-01  -123.38    0.00000E+00     0.00
 -118.00    12.00       0.61 -999.99    0.61    0.00000     0.00  LINEAR    5.55221E-01  -123.40    0.00000E+00     0.00
 -116.00    12.00       0.83 -999.99    0.83    0.00000     0.00  LINEAR    5.69291E-01  -123.41    0.00000E+00     0.00
 -114.00    12.00       1.03 -999.99    1.03    0.00000     0.00  LINEAR    5.82605E-01  -123.43    0.00000E+00     0.00
 -112.00    12.00       1.21 -999.99    1.21    0.00000     0.00  LINEAR    5.95105E-01  -123.44    0.00000E+00     0.00
 -110.00    12.00       1.38 -999.99    1.38    0.00000     0.00  LINEAR    6.06733E-01  -123.45    0.00000E+00     0.00
 -108.00    12.00       1.53 -999.99    1.53    0.00000     0.00  LINEAR    6.17437E-01  -123.47    0.00000E+00     0.00
[...]
 -142.00   358.00      -3.43 -999.99   -3.43    0.00000     0.00  LINEAR    3.48772E-01  -123.17    0.00000E+00     0.00
 -140.00   358.00      -2.98 -999.99   -2.98    0.00000     0.00  LINEAR    3.67440E-01  -123.19    0.00000E+00     0.00
 -138.00   358.00      -2.55 -999.99   -2.55    0.00000     0.00  LINEAR    3.85999E-01  -123.21    0.00000E+00     0.00
 -136.00   358.00      -2.14 -999.99   -2.14    0.00000     0.00  LINEAR    4.04409E-01  -123.23    0.00000E+00     0.00
 -134.00   358.00      -1.76 -999.99   -1.76    0.00000     0.00  LINEAR    4.22627E-01  -123.25    0.00000E+00     0.00
 -132.00   358.00      -1.40 -999.99   -1.40    0.00000     0.00  LINEAR    4.40606E-01  -123.27    0.00000E+00     0.00
 -130.00   358.00      -1.06 -999.99   -1.06    0.00000     0.00  LINEAR    4.58294E-01  -123.29    0.00000E+00     0.00
 -128.00   358.00      -0.73 -999.99   -0.73    0.00000     0.00  LINEAR    4.75640E-01  -123.31    0.00000E+00     0.00
 -126.00   358.00      -0.43 -999.99   -0.43    0.00000     0.00  LINEAR    4.92587E-01  -123.33    0.00000E+00     0.00
 -124.00   358.00      -0.14 -999.99   -0.14    0.00000     0.00  LINEAR    5.09078E-01  -123.35    0.00000E+00     0.00
 -122.00   358.00       0.12 -999.99    0.12    0.00000     0.00  LINEAR    5.25054E-01  -123.37    0.00000E+00     0.00
 -120.00   358.00       0.38 -999.99    0.38    0.00000     0.00  LINEAR    5.40455E-01  -123.38    0.00000E+00     0.00
 -118.00   358.00       0.61 -999.99    0.61    0.00000     0.00  LINEAR    5.55221E-01  -123.40    0.00000E+00     0.00
 -116.00   358.00       0.83 -999.99    0.83    0.00000     0.00  LINEAR    5.69291E-01  -123.41    0.00000E+00     0.00
 -114.00   358.00       1.03 -999.99    1.03    0.00000     0.00  LINEAR    5.82605E-01  -123.43    0.00000E+00     0.00
 -112.00   358.00       1.21 -999.99    1.21    0.00000     0.00  LINEAR    5.95105E-01  -123.44    0.00000E+00     0.00
 -110.00   358.00       1.38 -999.99    1.38    0.00000     0.00  LINEAR    6.06733E-01  -123.45    0.00000E+00     0.00
 -108.00   358.00       1.53 -999.99    1.53    0.00000     0.00  LINEAR    6.17437E-01  -123.47    0.00000E+00     0.00
 -106.00   358.00       1.67 -999.99    1.67    0.00000     0.00  LINEAR    6.27164E-01  -123.48    0.00000E+00     0.00
 -104.00   358.00       1.79 -999.99    1.79    0.00000     0.00  LINEAR    6.35867E-01  -123.48    0.00000E+00     0.00
 -102.00   358.00       1.89 -999.99    1.89    0.00000     0.00  LINEAR    6.43502E-01  -123.49    0.00000E+00     0.00
 -100.00   358.00       1.98 -999.99    1.98    0.00000     0.00  LINEAR    6.50031E-01  -123.50    0.00000E+00     0.00
  -98.00   358.00       2.05 -999.99    2.05    0.00000     0.00  LINEAR    6.55421E-01  -123.50    0.00000E+00     0.00
  -96.00   358.00       2.11 -999.99    2.11    0.00000     0.00  LINEAR    6.59642E-01  -123.51    0.00000E+00     0.00
  -94.00   358.00       2.15 -999.99    2.15    0.00000     0.00  LINEAR    6.62673E-01  -123.51    0.00000E+00     0.00
  -92.00   358.00       2.17 -999.99    2.17    0.00000     0.00  LINEAR    6.64499E-01  -123.51    0.00000E+00     0.00
  -90.00   358.00       2.18 -999.99    2.18    0.00000     0.00  LINEAR    6.65108E-01  -123.51    0.00000E+00     0.00
  -88.00   358.00       2.17 -999.99    2.17    0.00000     0.00  LINEAR    6.64499E-01  -123.51    0.00000E+00     0.00
  -86.00   358.00       2.15 -999.99    2.15    0.00000     0.00  LINEAR    6.62673E-01  -123.51    0.00000E+00     0.00
  -84.00   358.00       2.11 -999.99    2.11    0.00000     0.00  LINEAR    6.59642E-01  -123.51    0.00000E+00     0.00
  -82.00   358.00       2.05 -999.99    2.05    0.00000     0.00  LINEAR    6.55421E-01  -123.50    0.00000E+00     0.00
  -80.00   358.00       1.98 -999.99    1.98    0.00000     0.00  LINEAR    6.50031E-01  -123.50    0.00000E+00     0.00
  -78.00   358.00       1.89 -999.99    1.89    0.00000     0.00  LINEAR    6.43502E-01  -123.49    0.00000E+00     0.00
  -76.00   358.00       1.79 -999.99    1.79    0.00000     0.00  LINEAR    6.35867E-01  -123.48    0.00000E+00     0.00
  -74.00   358.00       1.67 -999.99    1.67    0.00000     0.00  LINEAR    6.27164E-01  -123.48    0.00000E+00     0.00
  -72.00   358.00       1.53 -999.99    1.53    0.00000     0.00  LINEAR    6.17437E-01  -123.47    0.00000E+00     0.00
  -70.00   358.00       1.38 -999.99    1.38    0.00000     0.00  LINEAR    6.06733E-01  -123.45    0.00000E+00     0.00
  -68.00   358.00       1.21 -999.99    1.21    0.00000     0.00  LINEAR    5.95105E-01  -123.44    0.00000E+00     0.00
  -66.00   358.00       1.03 -999.99    1.03    0.00000     0.00  LINEAR    5.82605E-01  -123.43    0.00000E+00     0.00
  -64.00   358.00       0.83 -999.99    0.83    0.00000     0.00  LINEAR    5.69291E-01  -123.41    0.00000E+00     0.00
  -62.00   358.00       0.61 -999.99    0.61    0.00000     0.00  LINEAR    5.55221E-01  -123.40    0.00000E+00     0.00
  -60.00   358.00       0.38 -999.99    0.38    0.00000     0.00  LINEAR    5.40455E-01  -123.38    0.00000E+00     0.00
  -58.00   358.00       0.12 -999.99    0.12    0.00000     0.00  LINEAR    5.25054E-01  -123.37    0.00000E+00     0.00
  -56.00   358.00      -0.14 -999.99   -0.14    0.00000     0.00  LINEAR    5.09078E-01  -123.35    0.00000E+00     0.00
  -54.00   358.00      -0.43 -999.99   -0.43    0.00000     0.00  LINEAR    4.92587E-01  -123.33    0.00000E+00     0.00
  -52.00   358.00      -0.73 -999.99   -0.73    0.00000     0.00  LINEAR    4.75640E-01  -123.31    0.00000E+00     0.00
  -50.00   358.00      -1.06 -999.99   -1.06    0.00000     0.00  LINEAR    4.58294E-01  -123.29    0.00000E+00     0.00
  -48.00   358.00      -1.40 -999.99   -1.40    0.00000     0.00  LINEAR    4.40606E-01  -123.27    0.00000E+00     0.00
  -46.00   358.00      -1.76 -999.99   -1.76    0.00000     0.00  LINEAR    4.22627E-01  -123.25    0.00000E+00     0.00
  -44.00   358.00      -2.14 -999.99   -2.14    0.00000     0.00  LINEAR    4.04409E-01  -123.23    0.00000E+00     0.00
  -42.00   358.00      -2.55 -999.99   -2.55    0.00000     0.00  LINEAR    3.85999E-01  -123.21    0.00000E+00     0.00
  -40.00   358.00      -2.98 -999.99   -2.98    0.00000     0.00  LINEAR    3.67440E-01  -123.19    0.00000E+00     0.00
  -38.00   358.00      -3.43 -999.99   -3.43    0.00000     0.00  LINEAR    3.48772E-01  -123.17    0.00000E+00     0.00
  -36.00   358.00      -3.91 -999.99   -3.91    0.00000     0.00  LINEAR    3.30032E-01  -123.15    0.00000E+00     0.00
  -34.00   358.00      -4.42 -999.99   -4.42    0.00000     0.00  LINEAR    3.11254E-01  -123.13    0.00000E+00     0.00
  -32.00   358.00      -4.96 -999.99   -4.96    0.00000     0.00  LINEAR    2.92464E-01  -123.11    0.00000E+00     0.00
  -30.00   358.00      -5.53 -999.99   -5.53    0.00000     0.00  LINEAR    2.73689E-01  -123.09    0.00000E+00     0.00
  -28.00   358.00      -6.15 -999.99   -6.15    0.00000     0.00  LINEAR    2.54950E-01  -123.07    0.00000E+00     0.00
  -26.00   358.00      -6.81 -999.99   -6.81    0.00000     0.00  LINEAR    2.36263E-01  -123.06    0.00000E+00     0.00
  -24.00   358.00      -7.53 -999.99   -7.53    0.00000     0.00  LINEAR    2.17642E-01  -123.04    0.00000E+00     0.00
  -22.00   358.00      -8.30 -999.99   -8.30    0.00000     0.00  LINEAR    1.99098E-01  -123.02    0.00000E+00     0.00
  -20.00   358.00      -9.14 -999.99   -9.14    0.00000     0.00  LINEAR    1.80635E-01  -123.01    0.00000E+00     0.00
  -18.00   358.00     -10.08 -999.99  -10.08    0.00000     0.00  LINEAR    1.62258E-01  -122.99    0.00000E+00     0.00
  -16.00   358.00     -11.11 -999.99  -11.11    0.00000     0.00  LINEAR    1.43968E-01  -122.98    0.00000E+00     0.00
  -14.00   358.00     -12.29 -999.99  -12.29    0.00000     0.00  LINEAR    1.25760E-01  -122.97    0.00000E+00     0.00
  -12.00   358.00     -13.64 -999.99  -13.64    0.00000     0.00  LINEAR    1.07632E-01  -122.96    0.00000E+00     0.00
  -10.00   358.00     -15.24 -999.99  -15.24    0.00000     0.00  LINEAR    8.95748E-02  -122.95    0.00000E+00     0.00
   -8.00   358.00     -17.18 -999.99  -17.18    0.00000     0.00  LINEAR    7.15804E-02  -122.94    0.00000E+00     0.00
   -6.00   358.00     -19.69 -999.99  -19.69    0.00000     0.00  LINEAR    5.36381E-02  -122.94    0.00000E+00     0.00
   -4.00   358.00     -23.22 -999.99  -23.22    0.00000     0.00  LINEAR    3.57359E-02  -122.93    0.00000E+00     0.00
   -2.00   358.00     -29.24 -999.99  -29.24    0.00000     0.00  LINEAR    1.78610E-02  -122.93    0.00000E+00     0.00
    0.00   358.00    -999.99 -999.99 -999.99    0.00000     0.00            0.00000E+00     0.00    0.00000E+00     0.00
 -180.00   360.00    -999.99 -999.99 -999.99    0.00000     0.00            5.22197E-12    57.07    0.00000E+00     0.00
 -178.00   360.00     -29.24 -999.99  -29.24    0.00000     0.00  LINEAR    1.78610E-02  -122.93    0.00000E+00     0.00
 -176.00   360.00     -23.22 -999.99  -23.22    0.00000     0.00  LINEAR    3.57359E-02  -122.93    0.00000E+00     0.00
 -174.00   360.00     -19.69 -999.99  -19.69    0.00000     0.00  LINEAR    5.36381E-02  -122.94    0.00000E+00     0.00
 -172.00   360.00     -17.18 -999.99  -17.18    0.00000     0.00  LINEAR    7.15804E-02  -122.94    0.00000E+00     0.00
 -170.00   360.00     -15.24 -999.99  -15.24    0.00000     0.00  LINEAR    8.95748E-02  -122.95    0.00000E+00     0.00
 -168.00   360.00     -13.64 -999.99  -13.64    0.00000     0.00  LINEAR    1.07632E-01  -122.96    0.00000E+00     0.00
 -166.00   360.00     -12.29 -999.99  -12.29    0.00000     0.00  LINEAR    1.25760E-01  -122.97    0.00000E+00     0.00
 -164.00   360.00     -11.11 -999.99  -11.11    0.00000     0.00  LINEAR    1.43968E-01  -122.98    0.00000E+00     0.00
 -162.00   360.00     -10.08 -999.99  -10.08    0.00000     0.00  LINEAR    1.62258E-01  -122.99    0.00000E+00     0.00
 -160.00   360.00      -9.14 -999.99   -9.14    0.00000     0.00  LINEAR    1.80635E-01  -123.01    0.00000E+00     0.00
 -158.00   360.00      -8.30 -999.99   -8.30    0.00000     0.00  LINEAR    1.99098E-01  -123.02    0.00000E+00     0.00
 -156.00   360.00      -7.53 -999.99   -7.53    0.00000     0.00  LINEAR    2.17642E-01  -123.04    0.00000E+00     0.00
 -154.00   360.00      -6.81 -999.99   -6.81    0.00000     0.00  LINEAR    2.36263E-01  -123.06    0.00000E+00     0.00
 -152.00   360.00      -6.15 -999.99   -6.15    0.00000     0.00  LINEAR    2.54950E-01  -123.07    0.00000E+00     0.00
 -150.00   360.00      -5.53 -999.99   -5.53    0.00000     0.00  LINEAR    2.73689E-01  -123.09    0.00000E+00     0.00
 -148.00   360.00      -4.96 -999.99   -4.96    0.00000     0.00  LINEAR    2.92464E-01  -123.11    0.00000E+00     0.00
 -146.00   360.00      -4.42 -999.99   -4.42    0.00000     0.00  LINEAR    3.11254E-01  -123.13    0.00000E+00     0.00
 -144.00   360.00      -3.91 -999.99   -3.91    0.00000     0.00  LINEAR    3.30032E-01  -123.15    0.00000E+00     0.00
 -142.00   360.00      -3.43 -999.99   -3.43    0.00000     0.00  LINEAR    3.48772E-01  -123.17    0.00000E+00     0.00
 -140.00   360.00      -2.98 -999.99   -2.98    0.00000     0.00  LINEAR    3.67440E-01  -123.19    0.00000E+00     0.00
 -138.00   360.00      -2.55 -999.99   -2.55    0.00000     0.00  LINEAR    3.85999E-01  -123.21    0.00000E+00     0.00
 -136.00   360.00      -2.14 -999.99   -2.14    0.00000     0.00  LINEAR    4.04409E-01  -123.23    0.00000E+00     0.00
 -134.00   360.00      -1.76 -999.99   -1.76    0.00000     0.00  LINEAR    4.22627E-01  -123.25    0.00000E+00     0.00
 -132.00   360.00      -1.40 -999.99   -1.40    0.00000     0.00  LINEAR    4.40606E-01  -123.27    0.00000E+00     0.00
 -130.00   360.00      -1.06 -999.99   -1.06    0.00000     0.00  LINEAR    4.58294E-01  -123.29    0.00000E+00     0.00
 -128.00   360.00      -0.73 -999.99   -0.73    0.00000     0.00  LINEAR    4.75640E-01  -123.31    0.00000E+00     0.00
 -126.00   360.00      -0.43 -999.99   -0.43    0.00000     0.00  LINEAR    4.92587E-01  -123.33    0.00000E+00     0.00
 -124.00   360.00      -0.14 -999.99   -0.14    0.00000     0.00  LINEAR    5.09078E-01  -123.35    0.00000E+00     0.00
 -122.00   360.00       0.12 -999.99    0.12    0.00000     0.00  LINEAR    5.25054E-01  -123.37    0.00000E+00     0.00
 -120.00   360.00       0.38 -999.99    0.38    0.00000     0.00  LINEAR    5.40455E-01  -123.38    0.00000E+00     0.00
 -118.00   360.00       0.61 -999.99    0.61    0.00000     0.00  LINEAR    5.55221E-01  -123.40    0.00000E+00     0.00
 -116.00   360.00       0.83 -999.99    0.83    0.00000     0.00  LINEAR    5.69291E-01  -123.41    0.00000E+00     0.00
 -114.00   360.00       1.03 -999.99    1.03    0.00000     0.00  LINEAR    5.82605E-01  -123.43    0.00000E+00     0.00
 -112.00   360.00       1.21 -999.99    1.21    0.00000     0.00  LINEAR    5.95105E-01  -123.44    0.00000E+00     0.00
 -110.00   360.00       1.38 -999.99    1.38    0.00000     0.00  LINEAR    6.06733E-01  -123.45    0.00000E+00     0.00
 -108.00   360.00       1.53 -999.99    1.53    0.00000     0.00  LINEAR    6.17437E-01  -123.47    0.00000E+00     0.00
 -106.00   360.00       1.67 -999.99    1.67    0.00000     0.00  LINEAR    6.27164E-01  -123.48    0.00000E+00     0.00
 -104.00   360.00       1.79 -999.99    1.79    0.00000     0.00  LINEAR    6.35867E-01  -123.48    0.00000E+00     0.00
 -102.00   360.00       1.89 -999.99    1.89    0.00000     0.00  LINEAR    6.43502E-01  -123.49    0.00000E+00     0.00
 -100.00   360.00       1.98 -999.99    1.98    0.00000     0.00  LINEAR    6.50031E-01  -123.50    0.00000E+00     0.00
  -98.00   360.00       2.05 -999.99    2.05    0.00000     0.00  LINEAR    6.55421E-01  -123.50    0.00000E+00     0.00
  -96.00   360.00       2.11 -999.99    2.11    0.00000     0.00  LINEAR    6.59642E-01  -123.51    0.00000E+00     0.00
  -94.00   360.00       2.15 -999.99    2.15    0.00000     0.00  LINEAR    6.62673E-01  -123.51    0.00000E+00     0.00
  -92.00   360.00       2.17 -999.99    2.17    0.00000     0.00  LINEAR    6.64499E-01  -123.51    0.00000E+00     0.00
  -90.00   360.00       2.18 -999.99    2.18    0.00000     0.00  LINEAR    6.65108E-01  -123.51    0.00000E+00     0.00
  -88.00   360.00       2.17 -999.99    2.17    0.00000     0.00  LINEAR    6.64499E-01  -123.51    0.00000E+00     0.00
  -86.00   360.00       2.15 -999.99    2.15    0.00000     0.00  LINEAR    6.62673E-01  -123.51    0.00000E+00     0.00
  -84.00   360.00       2.11 -999.99    2.11    0.00000     0.00  LINEAR    6.59642E-01  -123.51    0.00000E+00     0.00
  -82.00   360.00       2.05 -999.99    2.05    0.00000     0.00  LINEAR    6.55421E-01  -123.50    0.00000E+00     0.00
  -80.00   360.00       1.98 -999.99    1.98    0.00000     0.00  LINEAR    6.50031E-01  -123.50    0.00000E+00     0.00
  -78.00   360.00       1.89 -999.99    1.89    0.00000     0.00  LINEAR    6.43502E-01  -123.49    0.00000E+00     0.00
  -76.00   360.00       1.79 -999.99    1.79    0.00000     0.00  LINEAR    6.35867E-01  -123.48    0.00000E+00     0.00
  -74.00   360.00       1.67 -999.99    1.67    0.00000     0.00  LINEAR    6.27164E-01  -123.48    0.00000E+00     0.00
  -72.00   360.00       1.53 -999.99    1.53    0.00000     0.00  LINEAR    6.17437E-01  -123.47    0.00000E+00     0.00
  -70.00   360.00       1.38 -999.99    1.38    0.00000     0.00  LINEAR    6.06733E-01  -123.45    0.00000E+00     0.00
  -68.00   360.00       1.21 -999.99    1.21    0.00000     0.00  LINEAR    5.95105E-01  -123.44    0.00000E+00     0.00
  -66.00   360.00       1.03 -999.99    1.03    0.00000     0.00  LINEAR    5.82605E-01  -123.43    0.00000E+00     0.00
  -64.00   360.00       0.83 -999.99    0.83    0.00000     0.00  LINEAR    5.69291E-01  -123.41    0.00000E+00     0.00
  -62.00   360.00       0.61 -999.99    0.61    0.00000     0.00  LINEAR    5.55221E-01  -123.40    0.00000E+00     0.00
  -60.00   360.00       0.38 -999.99    0.38    0.00000     0.00  LINEAR    5.40455E-01  -123.38    0.00000E+00     0.00
  -58.00   360.00       0.12 -999.99    0.12    0.00000     0.00  LINEAR    5.25054E-01  -123.37    0.00000E+00     0.00
  -56.00   360.00      -0.14 -999.99   -0.14    0.00000     0.00  LINEAR    5.09078E-01  -123.35    0.00000E+00     0.00
  -54.00   360.00      -0.43 -999.99   -0.43    0.00000     0.00  LINEAR    4.92587E-01  -123.33    0.00000E+00     0.00
  -52.00   360.00      -0.73 -999.99   -0.73    0.00000     0.00  LINEAR    4.75640E-01  -123.31    0.00000E+00     0.00
  -50.00   360.00      -1.06 -999.99   -1.06    0.00000     0.00  LINEAR    4.58294E-01  -123.29    0.00000E+00     0.00
  -48.00   360.00      -1.40 -999.99   -1.40    0.00000     0.00  LINEAR    4.40606E-01  -123.27    0.00000E+00     0.00
  -46.00   360.00      -1.76 -999.99   -1.76    0.00000     0.00  LINEAR    4.22627E-01  -123.25    0.00000E+00     0.00
  -44.00   360.00      -2.14 -999.99   -2.14    0.00000     0.00  LINEAR    4.04409E-01  -123.23    0.00000E+00     0.00
  -42.00   360.00      -2.55 -999.99   -2.55    0.00000     0.00  LINEAR    3.85999E-01  -123.21    0.00000E+00     0.00
  -40.00   360.00      -2.98 -999.99   -2.98    0.00000     0.00  LINEAR    3.67440E-01  -123.19    0.00000E+00     0.00
  -38.00   360.00      -3.43 -999.99   -3.43    0.00000     0.00  LINEAR    3.48772E-01  -123.17    0.00000E+00     0.00
  -36.00   360.00      -3.91 -999.99   -3.91    0.00000     0.00  LINEAR    3.30032E-01  -123.15    0.00000E+00     0.00
  -34.00   360.00      -4.42 -999.99   -4.42    0.00000     0.00  LINEAR    3.11254E-01  -123.13    0.00000E+00     0.00
  -32.00   360.00      -4.96 -999.99   -4.96    0.00000     0.00  LINEAR    2.92464E-01  -123.11    0.00000E+00     0.00
  -30.00   360.00      -5.53 -999.99   -5.53    0.00000     0.00  LINEAR    2.73689E-01  -123.09    0.00000E+00     0.00
  -28.00   360.00      -6.15 -999.99   -6.15    0.00000     0.00  LINEAR    2.54950E-01  -123.07    0.00000E+00     0.00
  -26.00   360.00      -6.81 -999.99   -6.81    0.00000     0.00  LINEAR    2.36263E-01  -123.06    0.00000E+00     0.00
  -24.00   360.00      -7.53 -999.99   -7.53    0.00000     0.00  LINEAR    2.17642E-01  -123.04    0.00000E+00     0.00
  -22.00   360.00      -8.30 -999.99   -8.30    0.00000     0.00  LINEAR    1.99098E-01  -123.02    0.00000E+00     0.00
  -20.00   360.00      -9.14 -999.99   -9.14    0.00000     0.00  LINEAR    1.80635E-01  -123.01    0.00000E+00     0.00
  -18.00   360.00     -10.08 -999.99  -10.08    0.00000     0.00  LINEAR    1.62258E-01  -122.99    0.00000E+00     0.00
  -16.00   360.00     -11.11 -999.99  -11.11    0.00000     0.00  LINEAR    1.43968E-01  -122.98    0.00000E+00     0.00
  -14.00   360.00     -12.29 -999.99  -12.29    0.00000     0.00  LINEAR    1.25760E-01  -122.97    0.00000E+00     0.00
  -12.00   360.00     -13.64 -999.99  -13.64    0.00000     0.00  LINEAR    1.07632E-01  -122.96    0.00000E+00     0.00
  -10.00   360.00     -15.24 -999.99  -15.24    0.00000     0.00  LINEAR    8.95748E-02  -122.95    0.00000E+00     0.00
   -8.00   360.00     -17.18 -999.99  -17.18    0.00000     0.00  LINEAR    7.15804E-02  -122.94    0.00000E+00     0.00
   -6.00   360.00     -19.69 -999.99  -19.69    0.00000     0.00  LINEAR    5.36381E-02  -122.94    0.00000E+00     0.00
   -4.00   360.00     -23.22 -999.99  -23.22    0.00000     0.00  LINEAR    3.57359E-02  -122.93    0.00000E+00     0.00
   -2.00   360.00     -29.24 -999.99  -29.24    0.00000     0.00  LINEAR    1.78610E-02  -122.93    0.00000E+00     0.00
    0.00   360.00    -999.99 -999.99 -999.99    0.00000     0.00            0.00000E+00     0.00    0.00000E+00     0.00


   AVERAGE POWER GAIN= 9.99160E-01       SOLID ANGLE USED IN AVERAGING=( 4.0000)*PI STERADIANS.








 ***** DATA CARD NO.  6   EN   0    91   181  1003 -1.80000E+02  0.00000E+00  2.00000E+00  2.00000E+00  0.00000E+00  0.00000E+00

 RUN TIME =     0.234
